#

@<TRIPOS>MOLECULE
3f68
 62 64 0 0 0
SMALL
USER_CHARGES

@<TRIPOS>ATOM
      1 N          16.8970  -15.8960   23.1390 N.am      1 LIG         0.0000
      2 CL21       12.4570   -7.8540   24.6340 Cl        1 LIG         0.0000
      3 C1         19.5960  -14.3690   25.0120 C.3       1 LIG         0.0000
      4 N1         17.9290  -12.9930   21.3930 N.am      1 LIG         0.0000
      5 C2         20.0410  -13.0960   25.7820 C.3       1 LIG         0.0000
      6 C3         21.5350  -13.2610   26.1780 C.3       1 LIG         0.0000
      7 C4         22.4320  -13.5320   24.9550 C.3       1 LIG         0.0000
      8 C5         21.9310  -14.6710   24.0480 C.3       1 LIG         0.0000
      9 C6         20.4340  -14.4730   23.7030 C.3       1 LIG         0.0000
     10 C7         15.9990  -11.7370   20.4600 C.2       1 LIG         0.0000
     11 C14        17.2690  -13.5320   22.4620 C.2       1 LIG         0.0000
     12 C15        17.8040  -14.7420   23.1940 C.3       1 LIG         0.0000
     13 O22        15.4200  -12.7430   20.0720 O.2       1 LIG         0.0000
     14 N23        15.3080  -10.5830   20.6460 N.am      1 LIG         0.0000
     15 C24        13.8730  -10.5960   20.3560 C.3       1 LIG         0.0000
     16 C25        13.0160  -10.4950   21.6230 C.ar      1 LIG         0.0000
     17 C26        12.1440  -11.5250   21.9710 C.ar      1 LIG         0.0000
     18 C27        11.3700  -11.4470   23.1350 C.ar      1 LIG         0.0000
     19 C28        11.4280  -10.2920   23.9420 C.ar      1 LIG         0.0000
     20 C29        12.3220   -9.2710   23.6070 C.ar      1 LIG         0.0000
     21 C30        13.0730   -9.3430   22.4230 C.ar      1 LIG         0.0000
     22 C31        18.0660  -14.4250   24.7040 C.3       1 LIG         0.0000
     23 C32        17.4840  -11.7760   20.7390 C.3       1 LIG         0.0000
     24 O32        16.2220  -13.0730   22.9020 O.2       1 LIG         0.0000
     25 C33        19.0900  -13.6780   20.8010 C.3       1 LIG         0.0000
     26 C34        19.5780  -12.6040   19.7990 C.3       1 LIG         0.0000
     27 C35        18.2600  -11.9090   19.3920 C.3       1 LIG         0.0000
     28 C47        17.2460  -17.0620   23.7640 C.2       1 LIG         0.0000
     29 O48        18.0830  -17.7930   23.2470 O.2       1 LIG         0.0000
     30 C49        16.6730  -17.5100   25.0830 C.3       1 LIG         0.0000
     31 H01        19.7810  -15.2260   25.6590 H         1 LIG         0.0000
     32 H02        19.4290  -12.9650   26.6740 H         1 LIG         0.0000
     33 H03        19.9230  -12.2190   25.1450 H         1 LIG         0.0000
     34 H04        16.0200  -15.8290   22.6420 H         1 LIG         0.0000
     35 H05        21.6120  -14.1180   26.8470 H         1 LIG         0.0000
     36 H06        21.8730  -12.3470   26.6670 H         1 LIG         0.0000
     37 H07        23.4030  -13.8420   25.3400 H         1 LIG         0.0000
     38 H08        22.4870  -12.6200   24.3610 H         1 LIG         0.0000
     39 H09        22.0480  -15.6180   24.5750 H         1 LIG         0.0000
     40 H10        22.5140  -14.6790   23.1270 H         1 LIG         0.0000
     41 H11        20.3170  -13.5540   23.1290 H         1 LIG         0.0000
     42 H12        20.0830  -15.3210   23.1150 H         1 LIG         0.0000
     43 H13        18.7330  -14.9930   22.6820 H         1 LIG         0.0000
     44 H14        15.7680   -9.7450   20.9730 H         1 LIG         0.0000
     45 H15        13.6420  -11.5470   19.8750 H         1 LIG         0.0000
     46 H16        13.6390   -9.7520   19.7070 H         1 LIG         0.0000
     47 H17        12.0640  -12.4020   21.3290 H         1 LIG         0.0000
     48 H18        10.7230  -12.2780   23.4170 H         1 LIG         0.0000
     49 H19        10.7840  -10.1970   24.8160 H         1 LIG         0.0000
     50 H20        13.7010   -8.5030   22.1250 H         1 LIG         0.0000
     51 H21        17.6320  -13.4510   24.9320 H         1 LIG         0.0000
     52 H22        17.6080  -15.2020   25.3160 H         1 LIG         0.0000
     53 H23        17.6620  -10.8810   21.3350 H         1 LIG         0.0000
     54 H24        18.8630  -14.6450   20.3520 H         1 LIG         0.0000
     55 H25        19.8490  -13.9040   21.5500 H         1 LIG         0.0000
     56 H26        20.1330  -13.0150   18.9550 H         1 LIG         0.0000
     57 H27        20.2640  -11.9030   20.2740 H         1 LIG         0.0000
     58 H28        18.4220  -10.9500   18.9000 H         1 LIG         0.0000
     59 H29        17.7030  -12.5170   18.6790 H         1 LIG         0.0000
     60 H30        15.6560  -17.8730   24.9320 H         1 LIG         0.0000
     61 H31        17.2870  -18.3120   25.4930 H         1 LIG         0.0000
     62 H32        16.6590  -16.6700   25.7780 H         1 LIG         0.0000
@<TRIPOS>BOND
     1    1   12 1  
     2    1   34 1  
     3    3    5 1  
     4    3    9 1  
     5    3   22 1  
     6    3   31 1  
     7    4   23 1  
     8    4   25 1  
     9    5   32 1  
    10    5   33 1  
    11    5    6 1  
    12    6   35 1  
    13    6   36 1  
    14    6    7 1  
    15    7   37 1  
    16    7   38 1  
    17    7    8 1  
    18    8   39 1  
    19    8   40 1  
    20    8    9 1  
    21    9   41 1  
    22    9   42 1  
    23   10   13 2  
    24   10   14 am 
    25    4   11 am 
    26   11   24 2  
    27   11   12 1  
    28   12   22 1  
    29   12   43 1  
    30   14   15 1  
    31   14   44 1  
    32   15   16 1  
    33   15   45 1  
    34   15   46 1  
    35   16   17 2  
    36   16   21 1  
    37   17   18 1  
    38   17   47 1  
    39   18   19 2  
    40   18   48 1  
    41   19   20 1  
    42   19   49 1  
    43    2   20 1  
    44   20   21 2  
    45   21   50 1  
    46   22   51 1  
    47   22   52 1  
    48   10   23 1  
    49   23   27 1  
    50   23   53 1  
    51   25   54 1  
    52   25   55 1  
    53   25   26 1  
    54   26   56 1  
    55   26   57 1  
    56   26   27 1  
    57   27   58 1  
    58   27   59 1  
    59    1   28 am 
    60   28   29 2  
    61   28   30 1  
    62   30   60 1  
    63   30   61 1  
    64   30   62 1  
