#

@<TRIPOS>MOLECULE
3p17
 50 52 0 0 0
SMALL
USER_CHARGES

@<TRIPOS>ATOM
      1 C1         19.6110  -13.9940   24.6830 C.ar      1 LIG         0.0000
      2 C2         18.1780  -14.5050   24.6150 C.3       1 LIG         0.0000
      3 C3         17.6990  -14.5780   23.1540 C.3       1 LIG         0.0000
      4 N4         16.3850  -15.3010   23.0820 N.3       1 LIG         0.0000
      5 C5         17.4730  -13.1790   22.5570 C.2       1 LIG         0.0000
      6 N6         18.3390  -12.7830   21.5650 N.am      1 LIG         0.0000
      7 O7         16.5570  -12.4680   23.0010 O.2       1 LIG         0.0000
      8 C8         20.6710  -14.6660   24.0630 C.ar      1 LIG         0.0000
      9 C9         21.9580  -14.1600   24.1540 C.ar      1 LIG         0.0000
     10 C10        22.2090  -12.9810   24.8600 C.ar      1 LIG         0.0000
     11 C11        21.1620  -12.3040   25.4820 C.ar      1 LIG         0.0000
     12 C12        19.8780  -12.8100   25.3900 C.ar      1 LIG         0.0000
     13 C13        18.2050  -11.4320   20.9920 C.3       1 LIG         0.0000
     14 C14        16.7460  -11.3110   20.4680 C.2       1 LIG         0.0000
     15 O15        16.2600  -12.1930   19.7200 O.2       1 LIG         0.0000
     16 N16        16.0870  -10.1430   20.7160 N.am      1 LIG         0.0000
     17 C17        14.7610   -9.8760   20.1810 C.3       1 LIG         0.0000
     18 C18        13.7180  -10.4350   21.0910 C.ar      1 LIG         0.0000
     19 C19        19.1940  -11.4200   19.8060 C.3       1 LIG         0.0000
     20 C20        20.2390  -12.4020   20.2720 C.3       1 LIG         0.0000
     21 C21        19.4570  -13.5360   20.9490 C.3       1 LIG         0.0000
     22 C22        12.9340   -9.6220   21.8870 C.ar      1 LIG         0.0000
     23 N23        11.9730  -10.0820   22.7300 N.ar      1 LIG         0.0000
     24 C24        11.7790  -11.4190   22.7850 C.ar      1 LIG         0.0000
     25 C25        12.5170  -12.2990   22.0250 C.ar      1 LIG         0.0000
     26 C26        13.4900  -11.7940   21.1770 C.ar      1 LIG         0.0000
     27 H01        18.1300  -15.4990   25.0590 H         1 LIG         0.0000
     28 H02        18.4760  -15.0980   22.5930 H         1 LIG         0.0000
     29 H03        16.4910  -16.1390   22.5280 H         1 LIG         0.0000
     30 H04        16.0850  -15.5490   24.0140 H         1 LIG         0.0000
     31 H05        20.4840  -15.5860   23.5090 H         1 LIG         0.0000
     32 H06        22.7810  -14.6860   23.6710 H         1 LIG         0.0000
     33 H07        23.2250  -12.5900   24.9240 H         1 LIG         0.0000
     34 H08        21.3530  -11.3850   26.0360 H         1 LIG         0.0000
     35 H09        19.0580  -12.2800   25.8750 H         1 LIG         0.0000
     36 H10        18.4070  -10.6210   21.6910 H         1 LIG         0.0000
     37 H11        16.5340   -9.4410   21.2890 H         1 LIG         0.0000
     38 H12        14.6700  -10.3480   19.2030 H         1 LIG         0.0000
     39 H13        14.6190   -8.7990   20.0880 H         1 LIG         0.0000
     40 H14        19.5890  -10.4320   19.5680 H         1 LIG         0.0000
     41 H15        17.5330  -13.8180   25.1630 H         1 LIG         0.0000
     42 H16        18.7160  -11.7540   18.8850 H         1 LIG         0.0000
     43 H17        20.9550  -11.9400   20.9520 H         1 LIG         0.0000
     44 H18        20.8100  -12.7830   19.4250 H         1 LIG         0.0000
     45 H19        19.1430  -14.3310   20.2720 H         1 LIG         0.0000
     46 H20        20.0600  -14.0450   21.7010 H         1 LIG         0.0000
     47 H21        13.0970   -8.5450   21.8350 H         1 LIG         0.0000
     48 H22        11.0130  -11.8130   23.4530 H         1 LIG         0.0000
     49 H23        12.3390  -13.3720   22.0890 H         1 LIG         0.0000
     50 H24        14.0830  -12.4780   20.5700 H         1 LIG         0.0000
@<TRIPOS>BOND
     1    1    8 2  
     2    1   12 1  
     3    1    2 1  
     4    2   27 1  
     5    2   41 1  
     6    2    3 1  
     7    3    5 1  
     8    3   28 1  
     9    3    4 1  
    10    4   29 1  
    11    4   30 1  
    12    5    6 am 
    13    5    7 2  
    14    6   13 1  
    15    6   21 1  
    16    8    9 1  
    17    8   31 1  
    18    9   10 2  
    19    9   32 1  
    20   10   33 1  
    21   10   11 1  
    22   11   34 1  
    23   11   12 2  
    24   12   35 1  
    25   13   14 1  
    26   13   19 1  
    27   13   36 1  
    28   14   15 2  
    29   14   16 am 
    30   16   17 1  
    31   16   37 1  
    32   17   18 1  
    33   17   38 1  
    34   17   39 1  
    35   18   22 2  
    36   18   26 1  
    37   19   20 1  
    38   19   40 1  
    39   19   42 1  
    40   20   21 1  
    41   20   43 1  
    42   20   44 1  
    43   21   45 1  
    44   21   46 1  
    45   22   23 1  
    46   22   47 1  
    47   23   24 2  
    48   24   25 1  
    49   24   48 1  
    50   25   26 2  
    51   25   49 1  
    52   26   50 1  
