#

@<TRIPOS>MOLECULE
33U
 66 69 0 0 0
SMALL
USER_CHARGES

@<TRIPOS>ATOM
      1 H06        17.4610  -14.4240   25.1800 H         1 LIG         0.0000
      2 H15        18.5710  -11.3020   21.8570 H         1 LIG         0.0000
      3 H31        13.7870   -8.5360   20.6830 H         1 LIG         0.0000
      4 H05        17.6370  -15.4180   27.4810 H         1 LIG         0.0000
      5 H04        17.6950  -17.5450   28.7800 H         1 LIG         0.0000
      6 H03        18.3300  -19.6550   27.6490 H         1 LIG         0.0000
      7 H01        18.8480  -17.5440   23.9320 H         1 LIG         0.0000
      8 H14        18.9710  -12.8380   26.0930 H         1 LIG         0.0000
      9 H13        21.1810  -11.7310   26.2430 H         1 LIG         0.0000
     10 H08        16.5560  -16.7750   22.5670 H         1 LIG         0.0000
     11 H11        22.8220  -14.7570   23.6740 H         1 LIG         0.0000
     12 H10        20.6040  -15.8720   23.5260 H         1 LIG         0.0000
     13 H21        19.9690  -15.1020   21.5590 H         1 LIG         0.0000
     14 H09        16.1460  -16.2650   24.0820 H         1 LIG         0.0000
     15 H02        18.9070  -19.6730   25.2370 H         1 LIG         0.0000
     16 H07        18.4740  -15.8920   22.7590 H         1 LIG         0.0000
     17 H30        11.9920   -8.4590   22.4000 H         1 LIG         0.0000
     18 H17        19.1240  -12.3250   19.0350 H         1 LIG         0.0000
     19 H20        19.0450  -14.9530   20.1490 H         1 LIG         0.0000
     20 H19        21.1280  -13.5970   19.6460 H         1 LIG         0.0000
     21 H18        21.2070  -12.9420   21.2450 H         1 LIG         0.0000
     22 H29         9.9170   -9.4750   25.1540 H         1 LIG         0.0000
     23 H24        15.1640   -9.9420   19.1280 H         1 LIG         0.0000
     24 H23        15.0290  -11.6950   19.1780 H         1 LIG         0.0000
     25 H22        16.8020  -10.0950   21.0930 H         1 LIG         0.0000
     26 H25        14.0730  -12.7740   21.2320 H         1 LIG         0.0000
     27 H28        11.1500   -8.6350   24.2400 H         1 LIG         0.0000
     28 H27        10.4540  -12.5490   23.6470 H         1 LIG         0.0000
     29 H26        12.2950  -12.7150   22.9320 H         1 LIG         0.0000
     30 H12        23.1340  -12.7080   25.0170 H         1 LIG         0.0000
     31 H16        20.0620  -11.1480   19.8870 H         1 LIG         0.0000
     32 C          18.5960  -17.5430   24.9920 C.ar      1 LIG         0.0000
     33 C1         18.6290  -18.7390   25.7250 C.ar      1 LIG         0.0000
     34 C2         18.3040  -18.7250   27.0810 C.ar      1 LIG         0.0000
     35 C3         17.9470  -17.5430   27.7200 C.ar      1 LIG         0.0000
     36 C4         17.9150  -16.3500   26.9880 C.ar      1 LIG         0.0000
     37 C5         18.2380  -16.3490   25.6270 C.ar      1 LIG         0.0000
     38 C6         18.2260  -15.0720   24.7510 C.3       1 LIG         0.0000
     39 C7         17.7610  -15.2520   23.2790 C.3       1 LIG         0.0000
     40 C8         17.7230  -13.8800   22.6210 C.2       1 LIG         0.0000
     41 O          16.8080  -13.1400   22.9930 O.2       1 LIG         0.0000
     42 N          16.4490  -15.9680   23.1650 N.3       1 LIG         0.0000
     43 C9         19.6290  -14.4240   24.8070 C.ar      1 LIG         0.0000
     44 C10        20.7220  -14.9670   24.1220 C.ar      1 LIG         0.0000
     45 C11        21.9730  -14.3330   24.2100 C.ar      1 LIG         0.0000
     46 C12        22.1540  -13.1820   24.9610 C.ar      1 LIG         0.0000
     47 C13        21.0620  -12.6360   25.6470 C.ar      1 LIG         0.0000
     48 C14        19.8190  -13.2660   25.5580 C.ar      1 LIG         0.0000
     49 N1         18.6110  -13.4510   21.6830 N.am      1 LIG         0.0000
     50 C15        18.4760  -12.1080   21.1290 C.3       1 LIG         0.0000
     51 C16        17.1200  -12.0380   20.4430 C.2       1 LIG         0.0000
     52 O1         16.7520  -13.0260   19.8230 O.2       1 LIG         0.0000
     53 C17        19.5610  -12.1080   20.0100 C.3       1 LIG         0.0000
     54 C18        20.5050  -13.2450   20.4680 C.3       1 LIG         0.0000
     55 C19        19.5020  -14.3450   20.9290 C.3       1 LIG         0.0000
     56 N2         16.4550  -10.8700   20.5460 N.am      1 LIG         0.0000
     57 C20        15.1690  -10.8060   19.7930 C.3       1 LIG         0.0000
     58 C21        14.0590  -10.6760   20.8370 C.ar      1 LIG         0.0000
     59 C22        13.6160  -11.8180   21.4860 C.ar      1 LIG         0.0000
     60 C23        12.6140  -11.7930   22.4460 C.ar      1 LIG         0.0000
     61 C24        12.0150  -10.5710   22.7850 C.ar      1 LIG         0.0000
     62 C25        10.9220  -10.5600   23.8390 C.2       1 LIG         0.0000
     63 N3         10.2390  -11.6890   24.1310 N.2       1 LIG         0.0000
     64 N4         10.6440   -9.4830   24.4530 N.pl3     1 LIG         0.0000
     65 C26        12.4490   -9.4150   22.1440 C.ar      1 LIG         0.0000
     66 C27        13.4640   -9.4540   21.1730 C.ar      1 LIG         0.0000
@<TRIPOS>BOND
     1    7   32 1  
     2   32   33 1  
     3   32   37 2  
     4   15   33 1  
     5   33   34 2  
     6    6   34 1  
     7   34   35 1  
     8    5   35 1  
     9   35   36 2  
    10    4   36 1  
    11   36   37 1  
    12   37   38 1  
    13    1   38 1  
    14   38   39 1  
    15   38   43 1  
    16   16   39 1  
    17   39   40 1  
    18   39   42 1  
    19   40   41 2  
    20   40   49 am 
    21   10   42 1  
    22   14   42 1  
    23   43   44 2  
    24   43   48 1  
    25   12   44 1  
    26   44   45 1  
    27   11   45 1  
    28   45   46 2  
    29   30   46 1  
    30   46   47 1  
    31    9   47 1  
    32   47   48 2  
    33    8   48 1  
    34   49   50 1  
    35   49   55 1  
    36    2   50 1  
    37   50   51 1  
    38   50   53 1  
    39   51   52 2  
    40   51   56 am 
    41   18   53 1  
    42   31   53 1  
    43   53   54 1  
    44   20   54 1  
    45   21   54 1  
    46   54   55 1  
    47   13   55 1  
    48   19   55 1  
    49   25   56 1  
    50   56   57 1  
    51   23   57 1  
    52   24   57 1  
    53   57   58 1  
    54   58   59 1  
    55   58   66 2  
    56   26   59 1  
    57   59   60 2  
    58   29   60 1  
    59   60   61 1  
    60   61   62 1  
    61   61   65 2  
    62   62   63 2  
    63   62   64 1  
    64   28   63 1  
    65   22   64 1  
    66   27   64 1  
    67   17   65 1  
    68   65   66 1  
    69    3   66 1  
