#

@<TRIPOS>MOLECULE
2jh5
 52 54 0 0 0
SMALL
USER_CHARGES

@<TRIPOS>ATOM
      1 CL1         9.8460   25.2660   46.2660 Cl        1 LIG         0.0000
      2 C1         10.0930   23.7440   47.0190 C.ar      1 LIG         0.0000
      3 N1          7.9130   18.4340   50.6100 N.3       1 LIG         0.0000
      4 O1          9.6200   16.9960   49.4270 O.2       1 LIG         0.0000
      5 S1          9.4770   18.1510   50.2600 S.O2      1 LIG         0.0000
      6 C2         11.0130   22.7720   46.6030 C.ar      1 LIG         0.0000
      7 N2          4.7790   18.4540   49.0060 N.am      1 LIG         0.0000
      8 O2         10.1710   18.2570   51.5080 O.2       1 LIG         0.0000
      9 C3         10.9590   21.6550   47.4570 C.ar      1 LIG         0.0000
     10 N3          2.2400   19.7860   49.9960 N.am      1 LIG         0.0000
     11 O3          6.4080   20.0860   48.6950 O.2       1 LIG         0.0000
     12 C4         10.0190   21.7880   48.4920 C.ar      1 LIG         0.0000
     13 O4          1.4240   18.3890   48.3260 O.2       1 LIG         0.0000
     14 O5          2.1840   20.6690   52.7120 O.3       1 LIG         0.0000
     15 C6          9.9270   19.4860   49.2390 C.3       1 LIG         0.0000
     16 S6          9.2340   23.2760   48.4210 S.2       1 LIG         0.0000
     17 C9          9.7120   20.7810   49.5520 C.3       1 LIG         0.0000
     18 C12         6.9070   17.9340   49.7000 C.3       1 LIG         0.0000
     19 C13         5.9600   16.9300   50.3840 C.3       1 LIG         0.0000
     20 C14         4.5590   17.2850   49.8640 C.3       1 LIG         0.0000
     21 C15         6.0270   18.9850   49.0710 C.2       1 LIG         0.0000
     22 C16         3.7220   18.9920   48.1480 C.3       1 LIG         0.0000
     23 C17         3.6730   18.1820   46.8430 C.3       1 LIG         0.0000
     24 C18         2.3500   19.0290   48.8330 C.2       1 LIG         0.0000
     25 C19         0.9810   19.7960   50.7500 C.3       1 LIG         0.0000
     26 C20         1.1690   19.7670   52.2710 C.3       1 LIG         0.0000
     27 C22         3.4420   20.4180   52.0890 C.3       1 LIG         0.0000
     28 C23         3.2850   20.6600   50.5780 C.3       1 LIG         0.0000
     29 H01        11.6750   22.8680   45.7420 H         1 LIG         0.0000
     30 H02        11.5860   20.7730   47.3280 H         1 LIG         0.0000
     31 H03         9.2320   19.3550   48.4090 H         1 LIG         0.0000
     32 H04        11.0020   19.3930   49.0860 H         1 LIG         0.0000
     33 H05         8.6380   20.8600   49.7190 H         1 LIG         0.0000
     34 H06        10.3260   21.0180   50.4210 H         1 LIG         0.0000
     35 H07         7.5060   17.4680   48.9180 H         1 LIG         0.0000
     36 H08         6.0190   16.9880   51.4710 H         1 LIG         0.0000
     37 H09         6.2230   15.9080   50.1110 H         1 LIG         0.0000
     38 H10         3.8530   17.4860   50.6700 H         1 LIG         0.0000
     39 H11         4.1370   16.4590   49.2920 H         1 LIG         0.0000
     40 H12         3.9660   20.0320   47.9290 H         1 LIG         0.0000
     41 H13         7.7950   19.4350   50.6670 H         1 LIG         0.0000
     42 H14         3.5250   18.8590   46.0010 H         1 LIG         0.0000
     43 H15         4.6110   17.6430   46.7140 H         1 LIG         0.0000
     44 H16         2.8480   17.4710   46.8870 H         1 LIG         0.0000
     45 H17         0.4430   18.8870   50.4800 H         1 LIG         0.0000
     46 H18         0.4300   20.7000   50.4890 H         1 LIG         0.0000
     47 H19         1.4780   18.7590   52.5480 H         1 LIG         0.0000
     48 H20         0.2270   20.0400   52.7460 H         1 LIG         0.0000
     49 H21         3.7570   19.3910   52.2760 H         1 LIG         0.0000
     50 H22         4.1970   21.0910   52.4950 H         1 LIG         0.0000
     51 H23         2.9870   21.6980   50.4260 H         1 LIG         0.0000
     52 H24         4.2350   20.4550   50.0850 H         1 LIG         0.0000
@<TRIPOS>BOND
     1    1    2 1  
     2    2    6 2  
     3    2   16 1  
     4    3   18 1  
     5    3   41 1  
     6    3    5 1  
     7    4    5 1  
     8    5    8 1  
     9    5   15 1  
    10    6    9 1  
    11    6   29 1  
    12    7   22 1  
    13    9   12 2  
    14    9   30 1  
    15   10   25 1  
    16   10   28 1  
    17   12   16 1  
    18   12   17 1  
    19   14   27 1  
    20   15   31 1  
    21   15   32 1  
    22   15   17 1  
    23   17   33 1  
    24   17   34 1  
    25   18   19 1  
    26   18   21 1  
    27   18   35 1  
    28   19   20 1  
    29   19   36 1  
    30   19   37 1  
    31    7   20 1  
    32   20   38 1  
    33   20   39 1  
    34    7   21 am 
    35   11   21 2  
    36   22   23 1  
    37   22   24 1  
    38   22   40 1  
    39   23   42 1  
    40   23   43 1  
    41   23   44 1  
    42   10   24 am 
    43   13   24 2  
    44   25   26 1  
    45   25   45 1  
    46   25   46 1  
    47   14   26 1  
    48   26   47 1  
    49   26   48 1  
    50   27   28 1  
    51   27   49 1  
    52   27   50 1  
    53   28   51 1  
    54   28   52 1  
