#

@<TRIPOS>MOLECULE
BUQ_chA_altA
 14 13 0 0 0
SMALL
USER_CHARGES

@<TRIPOS>ATOM
      1 C1         60.8010   -6.0610   -1.8860 C.3       1 LIG         0.0000
      2 C2         60.6140   -5.5790   -0.4640 C.2       1 LIG         0.0000
      3 O2         60.4980   -6.4210    0.4290 O.2       1 LIG         0.0000
      4 C3         60.5610   -4.0930   -0.1430 C.3       1 LIG         0.0000
      5 C4         60.2240   -3.2290   -1.3580 C.3       1 LIG         0.0000
      6 O5         59.0760   -3.5710   -2.1240 O.3       1 LIG         0.0000
      7 H01        61.8530   -6.2910   -2.0560 H         1 LIG         0.0000
      8 H02        60.2030   -6.9580   -2.0480 H         1 LIG         0.0000
      9 H03        60.4840   -5.2820   -2.5790 H         1 LIG         0.0000
     10 H04        61.5530   -3.7990    0.1990 H         1 LIG         0.0000
     11 H05        59.8010   -3.9290    0.6210 H         1 LIG         0.0000
     12 H06        61.0610   -3.3820   -2.0400 H         1 LIG         0.0000
     13 H07        60.0840   -2.2080   -1.0020 H         1 LIG         0.0000
     14 H08        58.7680   -4.4430   -1.8680 H         1 LIG         0.0000
@<TRIPOS>BOND
     1    1    2 1  
     2    1    7 1  
     3    1    8 1  
     4    1    9 1  
     5    2    3 2  
     6    2    4 1  
     7    4    5 1  
     8    4   10 1  
     9    4   11 1  
    10    5    6 1  
    11    5   12 1  
    12    5   13 1  
    13    6   14 1  
