#

@<TRIPOS>MOLECULE
3dux
 57 59 0 0 0
SMALL
USER_CHARGES

@<TRIPOS>ATOM
      1 N          16.1710  -15.9180   23.2080 N.3       1 LIG         0.0000
      2 CL21       12.1650   -7.9020   24.5830 Cl        1 LIG         0.0000
      3 C1         17.9320  -14.9390   24.5340 C.3       1 LIG         0.0000
      4 N1         17.7750  -13.1570   21.4440 N.am      1 LIG         0.0000
      5 C2         18.3990  -11.6260   19.7770 C.3       1 LIG         0.0000
      6 C3         19.3320  -12.8270   19.7330 C.3       1 LIG         0.0000
      7 C4         18.8890  -13.8440   20.7900 C.3       1 LIG         0.0000
      8 C5         17.4290  -11.8450   20.9360 C.3       1 LIG         0.0000
      9 C7         15.9810  -11.7680   20.4910 C.2       1 LIG         0.0000
     10 C11        19.2230  -14.1140   24.5550 C.3       1 LIG         0.0000
     11 C12        19.4910  -13.7480   26.0370 C.3       1 LIG         0.0000
     12 C13        20.8000  -12.9330   26.1570 C.3       1 LIG         0.0000
     13 C14        17.0830  -13.6790   22.5060 C.2       1 LIG         0.0000
     14 C15        17.3660  -15.0440   23.0940 C.3       1 LIG         0.0000
     15 C16        21.9860  -13.7640   25.5820 C.3       1 LIG         0.0000
     16 C17        21.7380  -14.0550   24.0710 C.3       1 LIG         0.0000
     17 C18        20.4160  -14.8770   23.9260 C.3       1 LIG         0.0000
     18 O22        15.4240  -12.6860   19.9010 O.2       1 LIG         0.0000
     19 N23        15.3670  -10.6120   20.8330 N.am      1 LIG         0.0000
     20 C24        14.0480  -10.3120   20.2910 C.3       1 LIG         0.0000
     21 C25        13.0700  -10.3010   21.4780 C.ar      1 LIG         0.0000
     22 C26        12.1820  -11.3530   21.6650 C.ar      1 LIG         0.0000
     23 C27        11.2970  -11.3430   22.7390 C.ar      1 LIG         0.0000
     24 C28        11.2870  -10.2800   23.6420 C.ar      1 LIG         0.0000
     25 C29        12.1770   -9.2260   23.4530 C.ar      1 LIG         0.0000
     26 C30        13.0740   -9.2230   22.3770 C.ar      1 LIG         0.0000
     27 O32        16.1630  -13.0030   22.9900 O.2       1 LIG         0.0000
     28 H01        16.3850  -16.8320   22.8360 H         1 LIG         0.0000
     29 H02        15.9070  -16.0030   24.1790 H         1 LIG         0.0000
     30 H03        17.1920  -14.4440   25.1630 H         1 LIG         0.0000
     31 H04        18.1410  -15.9400   24.9100 H         1 LIG         0.0000
     32 H05        17.8580  -11.5240   18.8360 H         1 LIG         0.0000
     33 H06        18.9730  -10.7130   19.9370 H         1 LIG         0.0000
     34 H07        20.3540  -12.5060   19.9370 H         1 LIG         0.0000
     35 H08        19.2920  -13.2850   18.7450 H         1 LIG         0.0000
     36 H09        18.6160  -14.8130   20.3720 H         1 LIG         0.0000
     37 H10        19.6920  -14.0540   21.4960 H         1 LIG         0.0000
     38 H11        17.5170  -11.0720   21.6990 H         1 LIG         0.0000
     39 H12        19.1100  -13.2160   23.9480 H         1 LIG         0.0000
     40 H13        19.5890  -14.6650   26.6180 H         1 LIG         0.0000
     41 H14        18.6600  -13.1540   26.4180 H         1 LIG         0.0000
     42 H15        20.9910  -12.7070   27.2060 H         1 LIG         0.0000
     43 H16        20.7020  -12.0030   25.5970 H         1 LIG         0.0000
     44 H17        18.0790  -15.4780   22.3930 H         1 LIG         0.0000
     45 H18        22.0630  -14.7070   26.1240 H         1 LIG         0.0000
     46 H19        22.9130  -13.2020   25.6960 H         1 LIG         0.0000
     47 H20        22.5730  -14.6230   23.6620 H         1 LIG         0.0000
     48 H21        21.6470  -13.1150   23.5260 H         1 LIG         0.0000
     49 H22        20.2140  -15.0290   22.8660 H         1 LIG         0.0000
     50 H23        20.5340  -15.8360   24.4300 H         1 LIG         0.0000
     51 H24        15.8200   -9.9620   21.4590 H         1 LIG         0.0000
     52 H25        13.7530  -11.0540   19.5490 H         1 LIG         0.0000
     53 H26        14.0560   -9.3380   19.8010 H         1 LIG         0.0000
     54 H27        12.1780  -12.1900   20.9670 H         1 LIG         0.0000
     55 H28        10.6050  -12.1740   22.8760 H         1 LIG         0.0000
     56 H29        10.5930  -10.2740   24.4830 H         1 LIG         0.0000
     57 H30        13.7670   -8.3930   22.2390 H         1 LIG         0.0000
@<TRIPOS>BOND
     1    1   14 1  
     2    1   28 1  
     3    1   29 1  
     4    3   30 1  
     5    3   31 1  
     6    4    7 1  
     7    4    8 1  
     8    5    6 1  
     9    5   32 1  
    10    5   33 1  
    11    6    7 1  
    12    6   34 1  
    13    6   35 1  
    14    7   36 1  
    15    7   37 1  
    16    5    8 1  
    17    8    9 1  
    18    8   38 1  
    19    9   18 2  
    20    9   19 am 
    21    3   10 1  
    22   10   11 1  
    23   10   17 1  
    24   10   39 1  
    25   11   12 1  
    26   11   40 1  
    27   11   41 1  
    28   12   15 1  
    29   12   42 1  
    30   12   43 1  
    31    4   13 am 
    32   13   27 2  
    33    3   14 1  
    34   13   14 1  
    35   14   44 1  
    36   15   16 1  
    37   15   45 1  
    38   15   46 1  
    39   16   17 1  
    40   16   47 1  
    41   16   48 1  
    42   17   49 1  
    43   17   50 1  
    44   19   20 1  
    45   19   51 1  
    46   20   21 1  
    47   20   52 1  
    48   20   53 1  
    49   21   22 2  
    50   21   26 1  
    51   22   23 1  
    52   22   54 1  
    53   23   24 2  
    54   23   55 1  
    55   24   25 1  
    56   24   56 1  
    57    2   25 1  
    58   25   26 2  
    59   26   57 1  
