#

@<TRIPOS>MOLECULE
29U
 49 50 0 0 0
SMALL
USER_CHARGES

@<TRIPOS>ATOM
      1 H04        17.5510  -15.9000   25.0820 H         1 LIG         0.0000
      2 H03        18.1920  -15.7170   22.7110 H         1 LIG         0.0000
      3 H07        18.8240  -13.5410   25.9270 H         1 LIG         0.0000
      4 H06        19.7020  -14.2580   24.5550 H         1 LIG         0.0000
      5 H08        19.3410  -15.2430   25.9930 H         1 LIG         0.0000
      6 H05        16.9120  -14.1170   25.0020 H         1 LIG         0.0000
      7 H12        21.0400  -12.5690   21.4980 H         1 LIG         0.0000
      8 H11        19.1620  -12.4780   19.0240 H         1 LIG         0.0000
      9 H18        15.0220   -9.7170   19.0830 H         1 LIG         0.0000
     10 H10        19.9200  -11.1060   19.7310 H         1 LIG         0.0000
     11 H15        19.9660  -14.7450   22.0060 H         1 LIG         0.0000
     12 H09        18.3850  -11.1890   21.7180 H         1 LIG         0.0000
     13 H14        19.2790  -14.9340   20.4580 H         1 LIG         0.0000
     14 H17        14.9420  -11.4760   18.9830 H         1 LIG         0.0000
     15 H21        10.4110  -12.5910   23.5580 H         1 LIG         0.0000
     16 H20        12.3020  -12.7880   22.7940 H         1 LIG         0.0000
     17 H19        14.0450  -12.7680   21.0420 H         1 LIG         0.0000
     18 H22        11.1810   -8.7140   24.3630 H         1 LIG         0.0000
     19 H25        13.7120   -8.5030   20.7030 H         1 LIG         0.0000
     20 H24        11.9640   -8.5100   22.4590 H         1 LIG         0.0000
     21 H23         9.9350   -9.5410   25.2710 H         1 LIG         0.0000
     22 H13        21.2200  -13.4290   20.0070 H         1 LIG         0.0000
     23 H16        16.7650   -9.9340   20.8280 H         1 LIG         0.0000
     24 H01        16.1550  -16.5580   22.4840 H         1 LIG         0.0000
     25 H02        15.7830  -16.0220   23.9990 H         1 LIG         0.0000
     26 N          16.0930  -15.7440   23.0790 N.3       1 LIG         0.0000
     27 C          17.4220  -15.1030   23.1790 C.3       1 LIG         0.0000
     28 C1         17.4360  -13.7490   22.4880 C.2       1 LIG         0.0000
     29 O          16.4680  -13.0330   22.7690 O.2       1 LIG         0.0000
     30 C2         17.6350  -14.8790   24.7110 C.3       1 LIG         0.0000
     31 C3         18.9730  -14.4490   25.3430 C.3       1 LIG         0.0000
     32 N1         18.4130  -13.3300   21.6440 N.am      1 LIG         0.0000
     33 C4         18.3270  -12.0220   21.0170 C.3       1 LIG         0.0000
     34 C5         17.0180  -11.9110   20.2720 C.2       1 LIG         0.0000
     35 O1         16.6340  -12.8750   19.6440 O.2       1 LIG         0.0000
     36 C6         19.4930  -12.0770   19.9820 C.3       1 LIG         0.0000
     37 C7         20.4710  -13.0420   20.6980 C.3       1 LIG         0.0000
     38 C8         19.5280  -14.1680   21.1920 C.3       1 LIG         0.0000
     39 N2         16.3710  -10.7240   20.3370 N.am      1 LIG         0.0000
     40 C9         15.0790  -10.6370   19.6650 C.3       1 LIG         0.0000
     41 C10        13.9920  -10.6390   20.7580 C.ar      1 LIG         0.0000
     42 C11        13.5860  -11.8300   21.3540 C.ar      1 LIG         0.0000
     43 C12        12.6060  -11.8450   22.3400 C.ar      1 LIG         0.0000
     44 C13        12.0120  -10.6500   22.7480 C.ar      1 LIG         0.0000
     45 C14        10.8810  -10.6450   23.8790 C.2       1 LIG         0.0000
     46 N3         10.2060  -11.7630   24.0990 N.2       1 LIG         0.0000
     47 N4         10.6480   -9.5500   24.5560 N.pl3     1 LIG         0.0000
     48 C15        12.4210   -9.4500   22.1480 C.ar      1 LIG         0.0000
     49 C16        13.4040   -9.4430   21.1600 C.ar      1 LIG         0.0000
@<TRIPOS>BOND
     1   24   26 1  
     2   25   26 1  
     3   26   27 1  
     4    2   27 1  
     5   27   28 1  
     6   27   30 1  
     7   28   29 2  
     8   28   32 am 
     9    1   30 1  
    10    6   30 1  
    11   30   31 1  
    12    3   31 1  
    13    4   31 1  
    14    5   31 1  
    15   32   33 1  
    16   32   38 1  
    17   12   33 1  
    18   33   34 1  
    19   33   36 1  
    20   34   35 2  
    21   34   39 am 
    22    8   36 1  
    23   10   36 1  
    24   36   37 1  
    25    7   37 1  
    26   22   37 1  
    27   37   38 1  
    28   11   38 1  
    29   13   38 1  
    30   23   39 1  
    31   39   40 1  
    32    9   40 1  
    33   14   40 1  
    34   40   41 1  
    35   41   42 1  
    36   41   49 2  
    37   17   42 1  
    38   42   43 2  
    39   16   43 1  
    40   43   44 1  
    41   44   45 1  
    42   44   48 2  
    43   45   46 2  
    44   45   47 1  
    45   15   46 1  
    46   18   47 1  
    47   21   47 1  
    48   20   48 1  
    49   48   49 1  
    50   19   49 1  
