#

@<TRIPOS>MOLECULE
3sha
 50 52 0 0 0
SMALL
USER_CHARGES

@<TRIPOS>ATOM
      1 CL27      -13.3970   -8.7080  -22.3060 Cl        1 LIG         0.0000
      2 C1        -19.7100  -13.9460  -24.5650 C.ar      1 LIG         0.0000
      3 C2        -18.2930  -14.4790  -24.5010 C.3       1 LIG         0.0000
      4 C3        -17.7530  -14.5200  -23.0690 C.3       1 LIG         0.0000
      5 N4        -16.4730  -15.2100  -23.0850 N.3       1 LIG         0.0000
      6 C5        -17.5340  -13.1460  -22.4830 C.2       1 LIG         0.0000
      7 N6        -18.3800  -12.7030  -21.5680 N.am      1 LIG         0.0000
      8 O7        -16.5920  -12.4510  -22.8500 O.2       1 LIG         0.0000
      9 C8        -20.7670  -14.6060  -23.9410 C.ar      1 LIG         0.0000
     10 C9        -22.0590  -14.0890  -24.0320 C.ar      1 LIG         0.0000
     11 C10       -22.3340  -12.9260  -24.7400 C.ar      1 LIG         0.0000
     12 C11       -21.2770  -12.2680  -25.3650 C.ar      1 LIG         0.0000
     13 C12       -19.9890  -12.7930  -25.2820 C.ar      1 LIG         0.0000
     14 C13       -18.1560  -11.3840  -20.9760 C.3       1 LIG         0.0000
     15 C14       -16.8050  -11.3500  -20.3040 C.2       1 LIG         0.0000
     16 O15       -16.4070  -12.2900  -19.6140 O.2       1 LIG         0.0000
     17 N16       -16.0440  -10.2740  -20.5320 N.am      1 LIG         0.0000
     18 C17       -14.7080  -10.1080  -19.9520 C.3       1 LIG         0.0000
     19 C18       -13.6680  -10.9010  -20.7100 C.ar      1 LIG         0.0000
     20 C19       -19.2840  -11.2030  -19.9640 C.3       1 LIG         0.0000
     21 C20       -20.3080  -12.2870  -20.2840 C.3       1 LIG         0.0000
     22 C21       -19.5420  -13.3950  -20.9960 C.3       1 LIG         0.0000
     23 C22       -13.3470  -12.2020  -20.3320 C.ar      1 LIG         0.0000
     24 N23       -12.4230  -12.8960  -21.0100 N.ar      1 LIG         0.0000
     25 C24       -11.7800  -12.3770  -22.0650 C.ar      1 LIG         0.0000
     26 C25       -12.0560  -11.0840  -22.4840 C.ar      1 LIG         0.0000
     27 C26       -13.0080  -10.3610  -21.7820 C.ar      1 LIG         0.0000
     28 H01       -18.2790  -15.4890  -24.9110 H         1 LIG         0.0000
     29 H02       -18.4940  -15.0300  -22.4540 H         1 LIG         0.0000
     30 H03       -16.5670  -16.1050  -22.6260 H         1 LIG         0.0000
     31 H04       -16.1770  -15.3500  -24.0410 H         1 LIG         0.0000
     32 H05       -20.5840  -15.5240  -23.3830 H         1 LIG         0.0000
     33 H06       -22.8750  -14.6120  -23.5340 H         1 LIG         0.0000
     34 H07       -23.3510  -12.5380  -24.8050 H         1 LIG         0.0000
     35 H08       -21.4570  -11.3460  -25.9170 H         1 LIG         0.0000
     36 H09       -19.1760  -12.2810  -25.7970 H         1 LIG         0.0000
     37 H10       -18.1590  -10.5840  -21.7160 H         1 LIG         0.0000
     38 H11       -16.4050   -9.5440  -21.1300 H         1 LIG         0.0000
     39 H12       -14.7350  -10.4760  -18.9260 H         1 LIG         0.0000
     40 H13       -14.4380   -9.0520  -19.9800 H         1 LIG         0.0000
     41 H14       -19.7220  -10.2070  -20.0260 H         1 LIG         0.0000
     42 H15       -17.6570  -13.8070  -25.0780 H         1 LIG         0.0000
     43 H16       -18.9070  -11.3240  -18.9490 H         1 LIG         0.0000
     44 H17       -21.1160  -11.9000  -20.9040 H         1 LIG         0.0000
     45 H18       -20.7580  -12.6660  -19.3660 H         1 LIG         0.0000
     46 H19       -19.2620  -14.2100  -20.3290 H         1 LIG         0.0000
     47 H20       -20.1500  -13.8480  -21.7790 H         1 LIG         0.0000
     48 H21       -13.8500  -12.6580  -19.4800 H         1 LIG         0.0000
     49 H22       -11.0380  -12.9730  -22.5960 H         1 LIG         0.0000
     50 H23       -11.5400  -10.6490  -23.3400 H         1 LIG         0.0000
@<TRIPOS>BOND
     1    2    9 2  
     2    2   13 1  
     3    2    3 1  
     4    3   28 1  
     5    3   42 1  
     6    3    4 1  
     7    4    6 1  
     8    4   29 1  
     9    4    5 1  
    10    5   30 1  
    11    5   31 1  
    12    6    7 am 
    13    6    8 2  
    14    7   14 1  
    15    7   22 1  
    16    9   10 1  
    17    9   32 1  
    18   10   11 2  
    19   10   33 1  
    20   11   34 1  
    21   11   12 1  
    22   12   35 1  
    23   12   13 2  
    24   13   36 1  
    25   14   15 1  
    26   14   20 1  
    27   14   37 1  
    28   15   16 2  
    29   15   17 am 
    30   17   18 1  
    31   17   38 1  
    32   18   19 1  
    33   18   39 1  
    34   18   40 1  
    35   19   23 2  
    36   19   27 1  
    37   20   21 1  
    38   20   41 1  
    39   20   43 1  
    40   21   22 1  
    41   21   44 1  
    42   21   45 1  
    43   22   46 1  
    44   22   47 1  
    45   23   24 1  
    46   23   48 1  
    47   24   25 2  
    48   25   26 1  
    49   25   49 1  
    50   26   27 2  
    51   26   50 1  
    52    1   27 1  
