#

@<TRIPOS>MOLECULE
BTN
 32 33 0 0 0
SMALL
USER_CHARGES

@<TRIPOS>ATOM
      1 H02        32.1460   -9.4260  -28.2810 H         1 LIG         0.0000
      2 H04        34.4110   -9.7250  -29.4010 H         1 LIG         0.0000
      3 H05        34.9590  -10.4340  -27.8370 H         1 LIG         0.0000
      4 H03        32.6310  -11.1030  -28.7070 H         1 LIG         0.0000
      5 H08        36.1020   -7.7160  -29.0770 H         1 LIG         0.0000
      6 H07        33.8240   -7.6510  -28.2920 H         1 LIG         0.0000
      7 H10        35.8660   -6.8450  -26.2370 H         1 LIG         0.0000
      8 H06        34.3100   -8.3500  -26.7110 H         1 LIG         0.0000
      9 H09        36.6240   -8.6570  -27.6600 H         1 LIG         0.0000
     10 H12        36.2710   -3.0650  -27.6280 H         1 LIG         0.0000
     11 H15        38.3680   -7.3510  -28.9670 H         1 LIG         0.0000
     12 H14        38.6660   -3.1560  -28.4120 H         1 LIG         0.0000
     13 H13        38.1750   -4.3350  -26.1540 H         1 LIG         0.0000
     14 H16        38.1770   -6.6720  -26.4760 H         1 LIG         0.0000
     15 H11        35.9390   -3.7970  -26.0780 H         1 LIG         0.0000
     16 H01        33.8550  -11.9680  -26.4260 H         1 LIG         0.0000
     17 C          32.6240  -10.6610  -26.6080 C.2       1 LIG         0.0000
     18 O          31.5020  -10.5000  -26.0930 O.2       1 LIG         0.0000
     19 O1         33.5670  -11.1680  -25.9810 O.3       1 LIG         0.0000
     20 C1         32.8300  -10.2460  -28.0640 C.3       1 LIG         0.0000
     21 C2         34.2600   -9.7520  -28.3220 C.3       1 LIG         0.0000
     22 C3         34.4980   -8.3410  -27.7850 C.3       1 LIG         0.0000
     23 C4         35.9390   -7.8860  -28.0130 C.3       1 LIG         0.0000
     24 C5         36.1900   -6.5900  -27.2460 C.3       1 LIG         0.0000
     25 S          35.2910   -5.2070  -27.8970 S.3       1 LIG         0.0000
     26 C6         36.2900   -4.0110  -27.0880 C.3       1 LIG         0.0000
     27 C7         37.6990   -4.6100  -27.0960 C.3       1 LIG         0.0000
     28 N          38.4130   -4.1220  -28.2610 N.am      1 LIG         0.0000
     29 C8         38.7160   -5.1970  -29.1780 C.2       1 LIG         0.0000
     30 O2         39.2630   -5.0640  -30.2830 O.2       1 LIG         0.0000
     31 N1         38.2680   -6.4310  -28.5630 N.am      1 LIG         0.0000
     32 C9         37.6500   -6.1430  -27.2700 C.3       1 LIG         0.0000
@<TRIPOS>BOND
     1   17   18 2  
     2   17   19 1  
     3   17   20 1  
     4   16   19 1  
     5    1   20 1  
     6    4   20 1  
     7   20   21 1  
     8    2   21 1  
     9    3   21 1  
    10   21   22 1  
    11    6   22 1  
    12    8   22 1  
    13   22   23 1  
    14    5   23 1  
    15    9   23 1  
    16   23   24 1  
    17    7   24 1  
    18   24   25 1  
    19   24   32 1  
    20   25   26 1  
    21   10   26 1  
    22   15   26 1  
    23   26   27 1  
    24   13   27 1  
    25   27   28 1  
    26   27   32 1  
    27   12   28 1  
    28   28   29 am 
    29   29   30 2  
    30   29   31 am 
    31   11   31 1  
    32   31   32 1  
    33   14   32 1  
