#

@<TRIPOS>MOLECULE
IH1
 65 68 0 0 0
SMALL
USER_CHARGES

@<TRIPOS>ATOM
      1 H09        18.2650  -12.2620   22.5070 H         1 LIG         0.0000
      2 H29         9.6130  -10.9320   25.4700 H         1 LIG         0.0000
      3 H13        20.4480  -15.8250   20.4360 H         1 LIG         0.0000
      4 H02        19.1250  -14.4100   27.0690 H         1 LIG         0.0000
      5 H01        21.2450  -13.2770   26.4650 H         1 LIG         0.0000
      6 H27         9.4860  -13.0570   24.6760 H         1 LIG         0.0000
      7 H28        10.7840  -13.7000   23.6960 H         1 LIG         0.0000
      8 H03        20.2740  -17.9940   25.1250 H         1 LIG         0.0000
      9 H10        19.9530  -11.8560   20.8040 H         1 LIG         0.0000
     10 H05        16.8200  -18.6100   25.3590 H         1 LIG         0.0000
     11 H08        16.7400  -17.8210   23.0360 H         1 LIG         0.0000
     12 H07        16.2630  -16.5260   24.2560 H         1 LIG         0.0000
     13 H18        13.9020  -10.1930   22.1810 H         1 LIG         0.0000
     14 H06        18.5090  -18.5390   24.6470 H         1 LIG         0.0000
     15 H12        21.2590  -15.4050   21.9920 H         1 LIG         0.0000
     16 H04        22.4240  -16.9230   24.5460 H         1 LIG         0.0000
     17 H14        15.0980  -11.1690   20.1300 H         1 LIG         0.0000
     18 H11        21.5830  -13.4570   20.2620 H         1 LIG         0.0000
     19 H17        12.8830  -10.0820   20.6990 H         1 LIG         0.0000
     20 H16        12.8840  -12.0580   20.3230 H         1 LIG         0.0000
     21 H15        14.7150  -12.9640   19.6990 H         1 LIG         0.0000
     22 H26        13.3350  -14.1000   21.6170 H         1 LIG         0.0000
     23 H21        12.9550  -11.1700   24.4230 H         1 LIG         0.0000
     24 H20        11.5900   -9.7800   22.6260 H         1 LIG         0.0000
     25 H19        11.1840  -11.3080   21.7930 H         1 LIG         0.0000
     26 H22        11.6940  -13.1710   22.5030 H         1 LIG         0.0000
     27 H25        14.5090  -13.2110   22.6670 H         1 LIG         0.0000
     28 H24        15.6400  -12.6120   21.9730 H         1 LIG         0.0000
     29 H23        12.8690  -13.6260   23.9240 H         1 LIG         0.0000
     30 C          21.9140  -15.0870   25.5810 C.ar      1 LIG         0.0000
     31 C1         21.0480  -14.3190   26.2120 C.ar      1 LIG         0.0000
     32 C2         19.8910  -14.9510   26.5140 C.ar      1 LIG         0.0000
     33 C3         19.6460  -16.2650   26.1410 C.ar      1 LIG         0.0000
     34 C4         20.5030  -16.9760   25.4410 C.ar      1 LIG         0.0000
     35 C5         21.6750  -16.3910   25.1330 C.ar      1 LIG         0.0000
     36 BR         23.4420  -14.3210   25.1250 Br        1 LIG         0.0000
     37 S          18.1600  -17.1020   26.4320 S.O2      1 LIG         0.0000
     38 O          17.2280  -16.0250   26.7360 O.2       1 LIG         0.0000
     39 O1         18.4440  -17.9820   27.5840 O.2       1 LIG         0.0000
     40 C6         17.6480  -17.9860   25.0220 C.3       1 LIG         0.0000
     41 C7         17.0590  -17.1230   23.8100 C.3       1 LIG         0.0000
     42 C8         18.4770  -13.0140   21.7470 C.3       1 LIG         0.0000
     43 C9         19.7290  -12.8770   21.1120 C.2       1 LIG         0.0000
     44 C10        20.6890  -13.7440   20.8150 C.2       1 LIG         0.0000
     45 C11        20.4550  -15.1580   21.2980 C.3       1 LIG         0.0000
     46 C12        19.0290  -16.4530   22.6890 C.ar      1 LIG         0.0000
     47 C13        17.5700  -14.8640   23.0450 C.ar      1 LIG         0.0000
     48 N          19.2900  -15.2970   21.9610 N.ar      1 LIG         0.0000
     49 N1         18.5340  -14.2870   22.4350 N.ar      1 LIG         0.0000
     50 O2         16.5860  -14.3920   23.3750 O.2       1 LIG         0.0000
     51 O3         19.7750  -17.4080   22.5830 O.2       1 LIG         0.0000
     52 N2         17.8950  -16.2050   23.2180 N.ar      1 LIG         0.0000
     53 C14        17.1880  -12.6810   20.7050 C.2       1 LIG         0.0000
     54 O4         17.3750  -12.1980   19.5280 O.2       1 LIG         0.0000
     55 C15        14.8760  -12.1880   20.4480 C.3       1 LIG         0.0000
     56 C16        13.6350  -12.0180   21.1120 C.3       1 LIG         0.0000
     57 C17        13.1260  -10.6710   21.5830 C.3       1 LIG         0.0000
     58 C18        11.9440  -10.7790   22.3690 C.3       1 LIG         0.0000
     59 C19        12.2410  -11.6020   23.7210 C.3       1 LIG         0.0000
     60 C20        12.5930  -12.9820   23.0890 C.3       1 LIG         0.0000
     61 N3         15.8230  -12.4690   20.9900 N.am      1 LIG         0.0000
     62 C21        13.5510  -13.1730   22.1480 C.3       1 LIG         0.0000
     63 C22        10.9750  -11.8100   24.2710 C.2       1 LIG         0.0000
     64 N4         10.3730  -12.9340   24.2100 N.pl3     1 LIG         0.0000
     65 N5         10.4990  -10.8270   24.9970 N.2       1 LIG         0.0000
@<TRIPOS>BOND
     1   30   31 2  
     2   30   35 1  
     3   30   36 1  
     4    5   31 1  
     5   31   32 1  
     6    4   32 1  
     7   32   33 2  
     8   33   34 1  
     9   33   37 1  
    10    8   34 1  
    11   34   35 2  
    12   16   35 1  
    13   37   38 1  
    14   37   39 1  
    15   37   40 1  
    16   10   40 1  
    17   14   40 1  
    18   40   41 1  
    19   11   41 1  
    20   12   41 1  
    21   41   52 1  
    22    1   42 1  
    23   42   43 1  
    24   42   49 1  
    25   42   53 1  
    26    9   43 1  
    27   43   44 2  
    28   18   44 1  
    29   44   45 1  
    30    3   45 1  
    31   15   45 1  
    32   45   48 1  
    33   46   48 am 
    34   46   51 2  
    35   46   52 am 
    36   47   49 am 
    37   47   50 2  
    38   47   52 am 
    39   48   49 1  
    40   53   54 2  
    41   53   61 am 
    42   17   55 1  
    43   21   55 1  
    44   55   56 1  
    45   55   61 1  
    46   20   56 1  
    47   56   57 1  
    48   56   62 1  
    49   13   57 1  
    50   19   57 1  
    51   57   58 1  
    52   24   58 1  
    53   25   58 1  
    54   58   59 1  
    55   23   59 1  
    56   59   60 1  
    57   59   63 1  
    58   26   60 1  
    59   29   60 1  
    60   60   62 1  
    61   28   61 1  
    62   22   62 1  
    63   27   62 1  
    64   63   64 1  
    65   63   65 2  
    66    6   64 1  
    67    7   64 1  
    68    2   65 1  
