#

@<TRIPOS>MOLECULE
IH2
 75 79 0 0 0
SMALL
USER_CHARGES

@<TRIPOS>ATOM
      1 H36        16.2690  -17.8820   29.0690 H         1 LIG         0.0000
      2 H01        16.0360  -10.8560   20.5930 H         1 LIG         0.0000
      3 H18        20.8220  -14.7900   20.3950 H         1 LIG         0.0000
      4 H06         9.8890  -10.6800   25.1330 H         1 LIG         0.0000
      5 H05        10.4040  -13.8650   23.7200 H         1 LIG         0.0000
      6 H04         9.5070  -12.9240   24.8910 H         1 LIG         0.0000
      7 H08        14.5410  -12.3510   22.0900 H         1 LIG         0.0000
      8 H02        14.0670  -12.3010   18.7560 H         1 LIG         0.0000
      9 H14        11.2100  -10.0300   22.1080 H         1 LIG         0.0000
     10 H09        14.0910  -13.6120   20.9800 H         1 LIG         0.0000
     11 H12        12.2330  -12.0380   23.8450 H         1 LIG         0.0000
     12 H11        11.8370  -13.5900   21.6600 H         1 LIG         0.0000
     13 H22        20.2140  -12.8480   17.5710 H         1 LIG         0.0000
     14 H10        12.8830  -13.6460   23.1310 H         1 LIG         0.0000
     15 H17        19.4780  -15.4420   19.3810 H         1 LIG         0.0000
     16 H16        13.8370   -9.7880   21.3180 H         1 LIG         0.0000
     17 H03        14.1140  -10.5430   19.0630 H         1 LIG         0.0000
     18 H15        12.3360   -9.6690   20.4000 H         1 LIG         0.0000
     19 H21        21.4710  -13.3540   18.7240 H         1 LIG         0.0000
     20 H20        19.0220  -11.3630   19.8910 H         1 LIG         0.0000
     21 H19        17.6700  -11.9760   21.5990 H         1 LIG         0.0000
     22 H30        20.4400  -17.4150   24.2270 H         1 LIG         0.0000
     23 H25        16.3090  -16.8600   23.6230 H         1 LIG         0.0000
     24 H24        17.6530  -17.8650   23.1480 H         1 LIG         0.0000
     25 H23        20.7460  -11.7340   18.8540 H         1 LIG         0.0000
     26 H26        17.5450  -15.6320   25.0720 H         1 LIG         0.0000
     27 H29        18.9640  -13.9450   26.1320 H         1 LIG         0.0000
     28 H28        21.2540  -12.9930   26.5500 H         1 LIG         0.0000
     29 H27        23.2150  -14.2560   25.8460 H         1 LIG         0.0000
     30 H13        12.8920  -10.1550   23.0050 H         1 LIG         0.0000
     31 H34        19.1830  -19.0470   25.0460 H         1 LIG         0.0000
     32 H33        19.1550  -20.5360   27.0080 H         1 LIG         0.0000
     33 H32        17.7120  -19.8980   29.0180 H         1 LIG         0.0000
     34 H35        16.2700  -16.4130   27.0510 H         1 LIG         0.0000
     35 H31        22.7330  -16.4190   24.5500 H         1 LIG         0.0000
     36 H07        12.2380  -12.0240   20.0530 H         1 LIG         0.0000
     37 N          15.6250  -11.6940   20.2060 N.am      1 LIG         0.0000
     38 C          14.1860  -11.5310   19.5180 C.3       1 LIG         0.0000
     39 N1         10.2180  -12.9830   24.1760 N.pl3     1 LIG         0.0000
     40 N2         10.6020  -10.7300   24.4190 N.2       1 LIG         0.0000
     41 C1         10.8990  -11.9170   23.8410 C.2       1 LIG         0.0000
     42 C2         13.1850  -11.6740   20.4640 C.3       1 LIG         0.0000
     43 C3         13.7120  -12.7260   21.4900 C.3       1 LIG         0.0000
     44 C4         12.5460  -13.0470   22.2850 C.3       1 LIG         0.0000
     45 C5         11.8540  -11.8170   22.8470 C.3       1 LIG         0.0000
     46 C6         12.1720  -10.5150   22.2700 C.3       1 LIG         0.0000
     47 C7         12.9000  -10.2960   21.0900 C.3       1 LIG         0.0000
     48 C8         19.7730  -14.6910   20.1140 C.3       1 LIG         0.0000
     49 N3         19.0050  -14.8790   21.2240 N.ar      1 LIG         0.0000
     50 C9         18.7480  -16.0820   21.7820 C.ar      1 LIG         0.0000
     51 O          19.1860  -17.2120   21.6330 O.2       1 LIG         0.0000
     52 N4         17.8360  -15.8460   22.6800 N.ar      1 LIG         0.0000
     53 C10        17.4990  -14.5170   22.6330 C.ar      1 LIG         0.0000
     54 O1         16.7080  -14.0560   23.3090 O.2       1 LIG         0.0000
     55 N5         18.2500  -13.9370   21.7670 N.ar      1 LIG         0.0000
     56 C11        17.8250  -12.8060   20.9100 C.3       1 LIG         0.0000
     57 C12        18.8360  -12.4240   20.0590 C.2       1 LIG         0.0000
     58 C13        19.5620  -13.2920   19.4610 C.2       1 LIG         0.0000
     59 C14        16.3400  -12.8150   20.3230 C.2       1 LIG         0.0000
     60 C15        20.5540  -12.7780   18.6040 C.3       1 LIG         0.0000
     61 O2         15.7340  -14.0720   20.0910 O.2       1 LIG         0.0000
     62 C16        17.3950  -16.8760   23.5280 C.3       1 LIG         0.0000
     63 C17        18.0830  -16.5670   24.9160 C.3       1 LIG         0.0000
     64 C18        22.1980  -14.6010   25.6620 C.ar      1 LIG         0.0000
     65 C19        21.1550  -13.9530   26.0430 C.ar      1 LIG         0.0000
     66 C20        19.8110  -14.5350   25.7810 C.ar      1 LIG         0.0000
     67 C21        19.4720  -15.8040   25.1090 C.ar      1 LIG         0.0000
     68 C22        20.5370  -16.4480   24.7200 C.ar      1 LIG         0.0000
     69 C23        21.8850  -15.8620   24.9490 C.ar      1 LIG         0.0000
     70 C24        17.7030  -19.2430   28.1470 C.ar      1 LIG         0.0000
     71 C25        18.5600  -19.6230   26.9910 C.ar      1 LIG         0.0000
     72 C26        18.5770  -18.7990   25.9180 C.ar      1 LIG         0.0000
     73 C27        17.7950  -17.5990   25.9330 C.ar      1 LIG         0.0000
     74 C28        16.9110  -17.2940   27.0850 C.ar      1 LIG         0.0000
     75 C29        16.8870  -18.1090   28.2000 C.ar      1 LIG         0.0000
@<TRIPOS>BOND
     1    2   37 1  
     2   37   38 1  
     3   37   59 am 
     4    8   38 1  
     5   17   38 1  
     6   38   42 1  
     7    5   39 1  
     8    6   39 1  
     9   39   41 1  
    10    4   40 1  
    11   40   41 2  
    12   41   45 1  
    13   36   42 1  
    14   42   43 1  
    15   42   47 1  
    16    7   43 1  
    17   10   43 1  
    18   43   44 1  
    19   12   44 1  
    20   14   44 1  
    21   44   45 1  
    22   11   45 1  
    23   45   46 1  
    24    9   46 1  
    25   30   46 1  
    26   46   47 1  
    27   16   47 1  
    28   18   47 1  
    29    3   48 1  
    30   15   48 1  
    31   48   49 1  
    32   48   58 1  
    33   49   50 am 
    34   49   55 1  
    35   50   51 2  
    36   50   52 am 
    37   52   53 am 
    38   52   62 1  
    39   53   54 2  
    40   53   55 am 
    41   55   56 1  
    42   21   56 1  
    43   56   57 1  
    44   56   59 1  
    45   20   57 1  
    46   57   58 2  
    47   58   60 1  
    48   59   61 2  
    49   13   60 1  
    50   19   60 1  
    51   25   60 1  
    52   23   62 1  
    53   24   62 1  
    54   62   63 1  
    55   26   63 1  
    56   63   67 1  
    57   63   73 1  
    58   29   64 1  
    59   64   65 2  
    60   64   69 1  
    61   28   65 1  
    62   65   66 1  
    63   27   66 1  
    64   66   67 2  
    65   67   68 1  
    66   22   68 1  
    67   68   69 2  
    68   35   69 1  
    69   33   70 1  
    70   70   71 2  
    71   70   75 1  
    72   32   71 1  
    73   71   72 1  
    74   31   72 1  
    75   72   73 2  
    76   73   74 1  
    77   34   74 1  
    78   74   75 2  
    79    1   75 1  
