#

@<TRIPOS>MOLECULE
3dhk
 61 64 0 0 0
SMALL
USER_CHARGES

@<TRIPOS>ATOM
      1 CL1        12.2430   -7.7960   24.5140 Cl        1 LIG         0.0000
      2 C1         19.3460  -14.2430   24.8680 C.ar      1 LIG         0.0000
      3 N1         17.9970  -13.1240   21.6610 N.am      1 LIG         0.0000
      4 C2         19.6330  -13.1540   25.6850 C.ar      1 LIG         0.0000
      5 N2         16.2050  -15.8320   23.3000 N.3       1 LIG         0.0000
      6 C3         20.9350  -12.6580   25.7570 C.ar      1 LIG         0.0000
      7 C4         21.9630  -13.2490   25.0110 C.ar      1 LIG         0.0000
      8 C5         21.6890  -14.3410   24.1900 C.ar      1 LIG         0.0000
      9 C6         20.3820  -14.8350   24.1190 C.ar      1 LIG         0.0000
     10 C7         17.8330  -16.0360   25.6990 C.ar      1 LIG         0.0000
     11 C8         17.9070  -14.7760   24.7980 C.3       1 LIG         0.0000
     12 C9         17.4210  -14.9820   23.3300 C.3       1 LIG         0.0000
     13 C10        17.2480  -13.5970   22.6830 C.2       1 LIG         0.0000
     14 C11        19.0400  -13.9400   21.0120 C.3       1 LIG         0.0000
     15 C12        19.7890  -12.8140   20.2550 C.3       1 LIG         0.0000
     16 C13        18.6160  -11.9370   19.7510 C.3       1 LIG         0.0000
     17 C14        17.7330  -11.8390   21.0280 C.3       1 LIG         0.0000
     18 C15        16.2780  -11.7360   20.6310 C.2       1 LIG         0.0000
     19 C16        14.2860  -10.3630   20.3600 C.3       1 LIG         0.0000
     20 C17        13.2730  -10.3160   21.5220 C.ar      1 LIG         0.0000
     21 C18        12.3830  -11.3660   21.7460 C.ar      1 LIG         0.0000
     22 C19        11.4660  -11.3290   22.7960 C.ar      1 LIG         0.0000
     23 C20        11.4270  -10.2260   23.6430 C.ar      1 LIG         0.0000
     24 C21        12.3120   -9.1700   23.4310 C.ar      1 LIG         0.0000
     25 C22        13.2310   -9.2060   22.3810 C.ar      1 LIG         0.0000
     26 O22        15.7490  -12.7140   20.1110 O.2       1 LIG         0.0000
     27 C23        17.2830  -16.0360   26.9810 C.ar      1 LIG         0.0000
     28 N23        15.6470  -10.5650   20.8610 N.am      1 LIG         0.0000
     29 C24        17.2590  -17.2200   27.7230 C.ar      1 LIG         0.0000
     30 C25        17.7800  -18.3920   27.1840 C.ar      1 LIG         0.0000
     31 C26        18.3340  -18.4000   25.8990 C.ar      1 LIG         0.0000
     32 C27        18.3570  -17.2180   25.1600 C.ar      1 LIG         0.0000
     33 O32        16.3220  -12.9400   23.1570 O.2       1 LIG         0.0000
     34 H01        16.4020  -16.6840   22.7950 H         1 LIG         0.0000
     35 H02        15.9270  -16.0560   24.2450 H         1 LIG         0.0000
     36 H03        21.1540  -11.8040   26.3980 H         1 LIG         0.0000
     37 H04        18.8400  -12.6880   26.2690 H         1 LIG         0.0000
     38 H05        22.9770  -12.8550   25.0730 H         1 LIG         0.0000
     39 H06        22.4850  -14.8060   23.6090 H         1 LIG         0.0000
     40 H07        20.1630  -15.6880   23.4770 H         1 LIG         0.0000
     41 H08        17.1990  -14.0430   25.1840 H         1 LIG         0.0000
     42 H09        18.1560  -15.5260   22.7370 H         1 LIG         0.0000
     43 H10        18.6770  -14.7610   20.3930 H         1 LIG         0.0000
     44 H11        19.6800  -14.4410   21.7390 H         1 LIG         0.0000
     45 H12        20.4430  -13.1750   19.4610 H         1 LIG         0.0000
     46 H13        20.4460  -12.2550   20.9220 H         1 LIG         0.0000
     47 H14        18.0980  -12.3430   18.8820 H         1 LIG         0.0000
     48 H15        18.9620  -10.9550   19.4280 H         1 LIG         0.0000
     49 H16        17.9420  -10.9790   21.6640 H         1 LIG         0.0000
     50 H17        14.2490   -9.4130   19.8270 H         1 LIG         0.0000
     51 H18        14.0260  -11.1840   19.6920 H         1 LIG         0.0000
     52 H19        12.4050  -12.2340   21.0870 H         1 LIG         0.0000
     53 H20        10.7810  -12.1620   22.9530 H         1 LIG         0.0000
     54 H21        10.7110  -10.1880   24.4640 H         1 LIG         0.0000
     55 H22        13.9160   -8.3720   22.2280 H         1 LIG         0.0000
     56 H23        16.8740  -15.1170   27.4020 H         1 LIG         0.0000
     57 H24        16.1120   -9.8310   21.3770 H         1 LIG         0.0000
     58 H25        16.8310  -17.2250   28.7260 H         1 LIG         0.0000
     59 H26        17.7560  -19.3120   27.7680 H         1 LIG         0.0000
     60 H27        18.7430  -19.3200   25.4810 H         1 LIG         0.0000
     61 H28        18.7850  -17.2140   24.1580 H         1 LIG         0.0000
@<TRIPOS>BOND
     1    2    4 2  
     2    2    9 1  
     3    2   11 1  
     4    3   14 1  
     5    3   17 1  
     6    4    6 1  
     7    4   37 1  
     8    5   34 1  
     9    5   35 1  
    10    6    7 2  
    11    6   36 1  
    12    7    8 1  
    13    7   38 1  
    14    8    9 2  
    15    8   39 1  
    16    9   40 1  
    17   10   11 1  
    18   10   27 2  
    19   10   32 1  
    20   11   12 1  
    21   11   41 1  
    22    5   12 1  
    23   12   13 1  
    24   12   42 1  
    25    3   13 am 
    26   13   33 2  
    27   14   15 1  
    28   14   43 1  
    29   14   44 1  
    30   15   16 1  
    31   15   45 1  
    32   15   46 1  
    33   16   17 1  
    34   16   47 1  
    35   16   48 1  
    36   17   18 1  
    37   17   49 1  
    38   18   26 2  
    39   18   28 am 
    40   19   20 1  
    41   19   50 1  
    42   19   51 1  
    43   20   21 2  
    44   20   25 1  
    45   21   22 1  
    46   21   52 1  
    47   22   23 2  
    48   22   53 1  
    49   23   24 1  
    50   23   54 1  
    51    1   24 1  
    52   24   25 2  
    53   25   55 1  
    54   27   29 1  
    55   27   56 1  
    56   19   28 1  
    57   28   57 1  
    58   29   30 2  
    59   29   58 1  
    60   30   31 1  
    61   30   59 1  
    62   31   32 2  
    63   31   60 1  
    64   32   61 1  
