#

@<TRIPOS>MOLECULE
2jh6
 52 54 0 0 0
SMALL
USER_CHARGES

@<TRIPOS>ATOM
      1 CL1        10.1820   25.4840   46.0270 Cl        1 LIG         0.0000
      2 C1         10.3440   23.9520   46.8200 C.ar      1 LIG         0.0000
      3 N1          8.1290   18.3930   50.3470 N.3       1 LIG         0.0000
      4 O1         10.4020   18.4090   51.0490 O.2       1 LIG         0.0000
      5 S1          9.6460   18.2320   49.8450 S.O2      1 LIG         0.0000
      6 C2         11.3340   22.9690   46.4370 C.ar      1 LIG         0.0000
      7 N2          4.9020   18.6790   48.8700 N.am      1 LIG         0.0000
      8 O2          9.7820   17.0120   49.1100 O.2       1 LIG         0.0000
      9 C3         11.2600   21.8240   47.3090 C.ar      1 LIG         0.0000
     10 N3          2.6100   20.2310   50.2580 N.am      1 LIG         0.0000
     11 O3          6.6360   20.2010   48.6120 O.2       1 LIG         0.0000
     12 C4         10.2240   21.9710   48.3000 C.ar      1 LIG         0.0000
     13 O4          1.5710   18.9070   48.7750 O.2       1 LIG         0.0000
     14 O5          2.9090   20.7370   52.9860 O.3       1 LIG         0.0000
     15 C6         10.0430   19.5390   48.6910 C.3       1 LIG         0.0000
     16 S6          9.4150   23.4750   48.1860 S.2       1 LIG         0.0000
     17 C9          9.8880   20.9240   49.3310 C.3       1 LIG         0.0000
     18 C12         7.0220   17.9620   49.4970 C.3       1 LIG         0.0000
     19 C13         6.0160   17.0240   50.2100 C.3       1 LIG         0.0000
     20 C14         4.6750   17.3830   49.5330 C.3       1 LIG         0.0000
     21 C15         6.1860   19.1020   48.9300 C.2       1 LIG         0.0000
     22 C16         3.8220   19.4540   48.2360 C.3       1 LIG         0.0000
     23 C17         3.4530   18.9040   46.8410 C.3       1 LIG         0.0000
     24 C18         2.5720   19.5120   49.1110 C.2       1 LIG         0.0000
     25 C19         1.4200   20.2970   51.1100 C.3       1 LIG         0.0000
     26 C20         1.7920   19.9460   52.5430 C.3       1 LIG         0.0000
     27 C22         4.0810   20.5440   52.1800 C.3       1 LIG         0.0000
     28 C23         3.7670   21.0000   50.7480 C.3       1 LIG         0.0000
     29 H01        12.0340   23.0790   45.6090 H         1 LIG         0.0000
     30 H02        11.9090   20.9520   47.2290 H         1 LIG         0.0000
     31 H03         9.3520   19.4730   47.8510 H         1 LIG         0.0000
     32 H04        11.0730   19.4160   48.3570 H         1 LIG         0.0000
     33 H05         8.8640   21.0600   49.6800 H         1 LIG         0.0000
     34 H06        10.5640   21.0140   50.1810 H         1 LIG         0.0000
     35 H07         7.5470   17.4390   48.6980 H         1 LIG         0.0000
     36 H08         6.0000   17.1510   51.2920 H         1 LIG         0.0000
     37 H09         6.2710   15.9770   50.0470 H         1 LIG         0.0000
     38 H10         3.8600   17.4360   50.2550 H         1 LIG         0.0000
     39 H11         4.4020   16.6230   48.8010 H         1 LIG         0.0000
     40 H12         4.2100   20.4650   48.1160 H         1 LIG         0.0000
     41 H13         7.9870   19.3750   50.5340 H         1 LIG         0.0000
     42 H14         2.6140   19.4710   46.4380 H         1 LIG         0.0000
     43 H15         4.3100   19.0000   46.1740 H         1 LIG         0.0000
     44 H16         3.1730   17.8540   46.9260 H         1 LIG         0.0000
     45 H17         0.6780   19.5860   50.7470 H         1 LIG         0.0000
     46 H18         1.0070   21.3050   51.0790 H         1 LIG         0.0000
     47 H19         2.0700   18.8930   52.5850 H         1 LIG         0.0000
     48 H20         0.9380   20.1370   53.1920 H         1 LIG         0.0000
     49 H21         4.3670   19.4920   52.1830 H         1 LIG         0.0000
     50 H22         4.9060   21.1330   52.5820 H         1 LIG         0.0000
     51 H23         3.5400   22.0660   50.7360 H         1 LIG         0.0000
     52 H24         4.6290   20.8190   50.1060 H         1 LIG         0.0000
@<TRIPOS>BOND
     1    1    2 1  
     2    2    6 2  
     3    2   16 1  
     4    3   18 1  
     5    3   41 1  
     6    3    5 1  
     7    4    5 1  
     8    5    8 1  
     9    5   15 1  
    10    6    9 1  
    11    6   29 1  
    12    7   22 1  
    13    9   12 2  
    14    9   30 1  
    15   10   25 1  
    16   10   28 1  
    17   12   16 1  
    18   12   17 1  
    19   14   27 1  
    20   15   31 1  
    21   15   32 1  
    22   15   17 1  
    23   17   33 1  
    24   17   34 1  
    25   18   19 1  
    26   18   21 1  
    27   18   35 1  
    28   19   20 1  
    29   19   36 1  
    30   19   37 1  
    31    7   20 1  
    32   20   38 1  
    33   20   39 1  
    34    7   21 am 
    35   11   21 2  
    36   22   23 1  
    37   22   24 1  
    38   22   40 1  
    39   23   42 1  
    40   23   43 1  
    41   23   44 1  
    42   10   24 am 
    43   13   24 2  
    44   25   26 1  
    45   25   45 1  
    46   25   46 1  
    47   14   26 1  
    48   26   47 1  
    49   26   48 1  
    50   27   28 1  
    51   27   49 1  
    52   27   50 1  
    53   28   51 1  
    54   28   52 1  
