#

@<TRIPOS>MOLECULE
BM9
 71 74 0 0 0
SMALL
USER_CHARGES

@<TRIPOS>ATOM
      1 H31        51.8190   21.2090   22.7340 H         1 LIG         0.0000
      2 H01        58.5550   19.8480   19.2340 H         1 LIG         0.0000
      3 H18        57.6080   21.8330   24.8990 H         1 LIG         0.0000
      4 H06        58.5500   18.6860   17.2020 H         1 LIG         0.0000
      5 H05        61.3040   18.9920   17.0340 H         1 LIG         0.0000
      6 H04        60.0820   17.5470   17.2040 H         1 LIG         0.0000
      7 H02        60.7090   19.4070   20.4500 H         1 LIG         0.0000
      8 H03        61.5830   20.1520   19.1300 H         1 LIG         0.0000
      9 H14        58.3300   24.5510   20.9160 H         1 LIG         0.0000
     10 H09        58.5640   21.0020   17.2530 H         1 LIG         0.0000
     11 H12        60.6270   15.1210   18.7490 H         1 LIG         0.0000
     12 H11        60.6070   16.1870   17.3620 H         1 LIG         0.0000
     13 H22        57.2060   25.0890   22.8230 H         1 LIG         0.0000
     14 H10        60.6580   17.6610   21.1960 H         1 LIG         0.0000
     15 H17        59.2770   22.1590   24.4030 H         1 LIG         0.0000
     16 H08        60.3410   21.0430   17.2330 H         1 LIG         0.0000
     17 H15        59.5460   23.6340   21.7340 H         1 LIG         0.0000
     18 H07        59.6260   19.2790   15.9120 H         1 LIG         0.0000
     19 H21        56.0340   24.1110   23.5610 H         1 LIG         0.0000
     20 H20        57.5310   24.1430   25.1110 H         1 LIG         0.0000
     21 H19        58.8420   24.3940   23.9320 H         1 LIG         0.0000
     22 H30        52.8490   19.0160   22.6370 H         1 LIG         0.0000
     23 H25        60.5340   20.1210   22.5750 H         1 LIG         0.0000
     24 H24        59.1630   19.8300   24.5600 H         1 LIG         0.0000
     25 H23        57.2810   18.8840   22.9490 H         1 LIG         0.0000
     26 H26        59.5540   18.8650   21.7670 H         1 LIG         0.0000
     27 H29        54.6510   17.5940   23.4390 H         1 LIG         0.0000
     28 H28        56.2200   20.7020   25.7830 H         1 LIG         0.0000
     29 H27        61.0030   17.4420   22.7760 H         1 LIG         0.0000
     30 H13        57.7730   22.4660   19.4900 H         1 LIG         0.0000
     31 H34        54.9940   22.9270   25.9500 H         1 LIG         0.0000
     32 H33        53.0240   24.2660   25.2910 H         1 LIG         0.0000
     33 H32        51.5270   23.3880   23.5710 H         1 LIG         0.0000
     34 H16        56.6290   22.6090   21.6970 H         1 LIG         0.0000
     35 C          59.3950   21.6300   19.8090 C.2       1 LIG         0.0000
     36 O          60.2050   21.7390   20.5730 O.2       1 LIG         0.0000
     37 C1         59.4870   20.3580   18.9910 C.3       1 LIG         0.0000
     38 C2         60.6780   19.5970   19.3770 C.3       1 LIG         0.0000
     39 N          60.6140   18.4390   18.6560 N.pl3     1 LIG         0.0000
     40 C3         60.3960   18.5600   17.4550 C.3       1 LIG         0.0000
     41 C4         59.4920   19.1930   16.9900 C.3       1 LIG         0.0000
     42 C5         59.4690   20.4790   17.5640 C.3       1 LIG         0.0000
     43 C6         60.5970   17.1690   19.2200 C.cat     1 LIG         0.0000
     44 N1         60.6400   16.9040   20.5280 N.2       1 LIG         0.0000
     45 N2         60.6120   16.0540   18.3630 N.pl3     1 LIG         0.0000
     46 N3         58.5860   22.4530   20.0900 N.am      1 LIG         0.0000
     47 C7         58.5680   23.5450   21.2600 C.3       1 LIG         0.0000
     48 C8         57.5030   22.9480   22.2540 C.3       1 LIG         0.0000
     49 N4         57.9520   21.8170   22.8970 N.am      1 LIG         0.0000
     50 C9         58.2300   22.3280   24.1530 C.3       1 LIG         0.0000
     51 C10        57.9250   23.8430   24.1400 C.3       1 LIG         0.0000
     52 C11        57.0790   24.0950   23.2510 C.3       1 LIG         0.0000
     53 N5         57.8950   18.7220   23.7340 N.3       1 LIG         0.0000
     54 C12        58.7780   19.5890   23.5690 C.3       1 LIG         0.0000
     55 C13        58.0230   20.7270   22.6610 C.2       1 LIG         0.0000
     56 O1         57.4400   20.2500   21.4730 O.2       1 LIG         0.0000
     57 C14        59.9170   19.2350   22.7260 C.3       1 LIG         0.0000
     58 O2         60.7850   18.1220   23.4170 O.3       1 LIG         0.0000
     59 S          56.7000   18.2600   25.0930 S.O2      1 LIG         0.0000
     60 O3         57.1850   18.4850   26.5060 O.2       1 LIG         0.0000
     61 O4         56.6300   16.8560   25.0360 O.2       1 LIG         0.0000
     62 C15        55.4540   20.3230   25.1070 C.ar      1 LIG         0.0000
     63 C16        55.5370   19.1170   24.6810 C.ar      1 LIG         0.0000
     64 C17        54.5820   18.6260   23.7830 C.ar      1 LIG         0.0000
     65 C18        53.5880   19.3990   23.3410 C.ar      1 LIG         0.0000
     66 C19        52.5390   21.5670   23.4700 C.ar      1 LIG         0.0000
     67 C20        52.3570   22.7830   23.9360 C.ar      1 LIG         0.0000
     68 C21        53.1930   23.2790   24.8610 C.ar      1 LIG         0.0000
     69 C22        54.2620   22.5190   25.2530 C.ar      1 LIG         0.0000
     70 C23        54.4240   21.1480   24.7320 C.ar      1 LIG         0.0000
     71 C24        53.5240   20.7250   23.8120 C.ar      1 LIG         0.0000
@<TRIPOS>BOND
     1   35   36 2  
     2   35   37 1  
     3   35   46 am 
     4    2   37 1  
     5   37   38 1  
     6   37   42 1  
     7    7   38 1  
     8    8   38 1  
     9   38   39 1  
    10   39   40 1  
    11   39   43 1  
    12    5   40 1  
    13    6   40 1  
    14   40   41 1  
    15    4   41 1  
    16   18   41 1  
    17   41   42 1  
    18   10   42 1  
    19   16   42 1  
    20   43   44 2  
    21   43   45 1  
    22   14   44 1  
    23   11   45 1  
    24   12   45 1  
    25   30   46 1  
    26   46   47 1  
    27    9   47 1  
    28   17   47 1  
    29   47   48 1  
    30   34   48 1  
    31   48   49 1  
    32   48   52 1  
    33   49   50 1  
    34   49   55 am 
    35    3   50 1  
    36   15   50 1  
    37   50   51 1  
    38   20   51 1  
    39   21   51 1  
    40   51   52 1  
    41   13   52 1  
    42   19   52 1  
    43   25   53 1  
    44   53   54 1  
    45   53   59 1  
    46   24   54 1  
    47   54   55 1  
    48   54   57 1  
    49   55   56 2  
    50   23   57 1  
    51   26   57 1  
    52   57   58 1  
    53   29   58 1  
    54   59   60 1  
    55   59   61 1  
    56   59   63 1  
    57   28   62 1  
    58   62   63 2  
    59   62   70 1  
    60   63   64 1  
    61   27   64 1  
    62   64   65 2  
    63   22   65 1  
    64   65   71 1  
    65    1   66 1  
    66   66   67 2  
    67   66   71 1  
    68   33   67 1  
    69   67   68 1  
    70   32   68 1  
    71   68   69 2  
    72   31   69 1  
    73   69   70 1  
    74   70   71 2  
