#

@<TRIPOS>MOLECULE
3egk
 59 60 0 0 0
SMALL
USER_CHARGES

@<TRIPOS>ATOM
      1 CL1        12.1260   -7.6280   24.6940 Cl        1 LIG         0.0000
      2 C1         13.9340  -10.4170   20.6290 C.3       1 LIG         0.0000
      3 N1         18.5810  -13.8930   20.7550 N.3       1 LIG         0.0000
      4 O1         15.0840  -12.3190   22.1040 O.3       1 LIG         0.0000
      5 C2         14.9190  -11.5260   20.8010 C.3       1 LIG         0.0000
      6 N2         19.9790  -16.0540   22.8170 N.am      1 LIG         0.0000
      7 O2         15.6860  -11.7850   19.6640 O.3       1 LIG         0.0000
      8 C3         16.4920  -12.9760   19.7510 C.3       1 LIG         0.0000
      9 O3         19.7330  -15.2940   24.9400 O.3       1 LIG         0.0000
     10 C4         17.7270  -12.7070   20.6530 C.3       1 LIG         0.0000
     11 O4         18.5540  -17.0720   24.2370 O.2       1 LIG         0.0000
     12 C5         18.7180  -11.7070   20.0080 C.3       1 LIG         0.0000
     13 O5         17.3360  -14.9830   22.2930 O.3       1 LIG         0.0000
     14 C6         20.1290  -12.2110   20.3770 C.3       1 LIG         0.0000
     15 C7         19.9700  -13.7450   20.3340 C.3       1 LIG         0.0000
     16 C8         18.2180  -15.0190   21.4400 C.3       1 LIG         0.0000
     17 C9         19.1740  -16.1940   21.6060 C.3       1 LIG         0.0000
     18 C10        19.3760  -16.1830   24.0180 C.2       1 LIG         0.0000
     19 C11        20.2410  -14.0690   24.7970 C.3       1 LIG         0.0000
     20 C12        19.9230  -13.3640   26.1210 C.3       1 LIG         0.0000
     21 C13        21.7470  -14.2700   24.6780 C.3       1 LIG         0.0000
     22 C14        19.7880  -13.1950   23.6880 C.3       1 LIG         0.0000
     23 C15        12.8970  -10.2950   21.7520 C.ar      1 LIG         0.0000
     24 C16        12.9510   -9.1850   22.6030 C.ar      1 LIG         0.0000
     25 C17        12.0350   -9.0400   23.6520 C.ar      1 LIG         0.0000
     26 C18        11.0170   -9.9820   23.8150 C.ar      1 LIG         0.0000
     27 C19        10.9720  -11.1020   22.9800 C.ar      1 LIG         0.0000
     28 C20        11.9220  -11.2780   21.9620 C.ar      1 LIG         0.0000
     29 H01        14.4860   -9.4790   20.5730 H         1 LIG         0.0000
     30 H02        15.4450  -13.1870   21.9080 H         1 LIG         0.0000
     31 H03        14.9500  -12.0130   21.7760 H         1 LIG         0.0000
     32 H04        13.3750  -10.6430   19.7210 H         1 LIG         0.0000
     33 H05        20.9690  -15.8640   22.7570 H         1 LIG         0.0000
     34 H06        16.8280  -13.2580   18.7530 H         1 LIG         0.0000
     35 H07        15.9000  -13.7850   20.1780 H         1 LIG         0.0000
     36 H08        17.2940  -12.3650   21.5930 H         1 LIG         0.0000
     37 H09        18.5500  -10.6910   20.3660 H         1 LIG         0.0000
     38 H10        18.5910  -11.6920   18.9250 H         1 LIG         0.0000
     39 H11        17.1680  -14.0710   22.5430 H         1 LIG         0.0000
     40 H12        20.4790  -11.8420   21.3410 H         1 LIG         0.0000
     41 H13        20.8690  -11.8720   19.6520 H         1 LIG         0.0000
     42 H14        20.6860  -14.2880   20.9500 H         1 LIG         0.0000
     43 H15        20.1280  -14.1370   19.3290 H         1 LIG         0.0000
     44 H16        17.6880  -15.2680   20.5200 H         1 LIG         0.0000
     45 H17        19.8450  -16.2170   20.7470 H         1 LIG         0.0000
     46 H18        18.5970  -17.1170   21.6670 H         1 LIG         0.0000
     47 H19        18.8880  -13.5640   26.3990 H         1 LIG         0.0000
     48 H20        20.5870  -13.7370   26.9010 H         1 LIG         0.0000
     49 H21        20.0660  -12.2900   26.0050 H         1 LIG         0.0000
     50 H22        22.2510  -13.7100   25.4660 H         1 LIG         0.0000
     51 H23        21.9820  -15.3300   24.7790 H         1 LIG         0.0000
     52 H24        22.0860  -13.9130   23.7060 H         1 LIG         0.0000
     53 H25        18.9050  -12.6390   24.0020 H         1 LIG         0.0000
     54 H26        20.5830  -12.4960   23.4270 H         1 LIG         0.0000
     55 H27        19.5420  -13.8070   22.8200 H         1 LIG         0.0000
     56 H28        13.7160   -8.4240   22.4470 H         1 LIG         0.0000
     57 H29        10.2620   -9.8450   24.5890 H         1 LIG         0.0000
     58 H30        10.1900  -11.8480   23.1210 H         1 LIG         0.0000
     59 H31        11.9010  -12.1730   21.3400 H         1 LIG         0.0000
@<TRIPOS>BOND
     1    2    5 1  
     2    2   23 1  
     3    2   29 1  
     4    2   32 1  
     5    3   16 1  
     6    4   30 1  
     7    4    5 1  
     8    5    7 1  
     9    5   31 1  
    10    6   18 am 
    11    6   33 1  
    12    7    8 1  
    13    8   10 1  
    14    8   34 1  
    15    8   35 1  
    16    9   19 1  
    17    3   10 1  
    18   10   12 1  
    19   10   36 1  
    20   12   14 1  
    21   12   37 1  
    22   12   38 1  
    23   13   39 1  
    24   14   15 1  
    25   14   40 1  
    26   14   41 1  
    27    3   15 1  
    28   15   42 1  
    29   15   43 1  
    30   13   16 1  
    31   16   17 1  
    32   16   44 1  
    33    6   17 1  
    34   17   45 1  
    35   17   46 1  
    36    9   18 1  
    37   11   18 2  
    38   19   20 1  
    39   19   21 1  
    40   19   22 1  
    41   20   47 1  
    42   20   48 1  
    43   20   49 1  
    44   21   50 1  
    45   21   51 1  
    46   21   52 1  
    47   22   53 1  
    48   22   54 1  
    49   22   55 1  
    50   23   24 2  
    51   23   28 1  
    52   24   25 1  
    53   24   56 1  
    54    1   25 1  
    55   25   26 2  
    56   26   27 1  
    57   26   57 1  
    58   27   28 2  
    59   27   58 1  
    60   28   59 1  
