#

@<TRIPOS>MOLECULE
DSS
 14 13 0 0 0
SMALL
USER_CHARGES

@<TRIPOS>ATOM
      1 H05        58.8770   -4.0410    0.0790 H         1 LIG         0.0000
      2 H04        60.2720   -3.7060    1.1790 H         1 LIG         0.0000
      3 H08        60.0940   -0.2620   -0.3480 H         1 LIG         0.0000
      4 H07        60.7480   -1.1520    1.0480 H         1 LIG         0.0000
      5 H06        59.0390   -1.3440    0.5910 H         1 LIG         0.0000
      6 H01        58.9390   -5.0740   -1.8320 H         1 LIG         0.0000
      7 H02        60.5020   -5.4010   -2.6180 H         1 LIG         0.0000
      8 H03        59.5600   -6.7400   -1.9190 H         1 LIG         0.0000
      9 S          60.6710   -5.4620   -0.2410 S.O       1 LIG         0.0000
     10 O          60.1490   -6.4880    0.7290 O.2       1 LIG         0.0000
     11 C          59.8370   -5.6920   -1.8050 C.3       1 LIG         0.0000
     12 C1         59.9600   -3.9490    0.1630 C.3       1 LIG         0.0000
     13 S1         60.5040   -2.6040   -0.8980 S.3       1 LIG         0.0000
     14 C2         60.0500   -1.1960    0.2120 C.3       1 LIG         0.0000
@<TRIPOS>BOND
     1    9   10 2  
     2    9   11 1  
     3    9   12 1  
     4    6   11 1  
     5    7   11 1  
     6    8   11 1  
     7    1   12 1  
     8    2   12 1  
     9   12   13 1  
    10   13   14 1  
    11    3   14 1  
    12    4   14 1  
    13    5   14 1  
