#

@<TRIPOS>MOLECULE
DMS
 10 9 0 0 0
SMALL
USER_CHARGES

@<TRIPOS>ATOM
      1 H04        59.5130   -4.1230    0.7690 H         1 LIG         0.0000
      2 H06        60.4750   -3.3000   -0.4820 H         1 LIG         0.0000
      3 H05        61.2160   -3.7130    1.0830 H         1 LIG         0.0000
      4 H01        59.1940   -5.0070   -1.7680 H         1 LIG         0.0000
      5 H02        60.7140   -5.2050   -2.6710 H         1 LIG         0.0000
      6 H03        59.8040   -6.6380   -2.1350 H         1 LIG         0.0000
      7 S          61.0060   -5.6220   -0.3340 S.O       1 LIG         0.0000
      8 O          60.4640   -6.7480    0.5580 O.2       1 LIG         0.0000
      9 C          60.0900   -5.6180   -1.8790 C.3       1 LIG         0.0000
     10 C1         60.5040   -4.0340    0.3230 C.3       1 LIG         0.0000
@<TRIPOS>BOND
     1    7    8 2  
     2    7    9 1  
     3    7   10 1  
     4    4    9 1  
     5    5    9 1  
     6    6    9 1  
     7    1   10 1  
     8    2   10 1  
     9    3   10 1  
