#

@<TRIPOS>MOLECULE
3shc
 50 52 0 0 0
SMALL
USER_CHARGES

@<TRIPOS>ATOM
      1 CL27       12.3300   -7.9990   24.6400 Cl        1 LIG         0.0000
      2 C1         20.4480  -15.1110   24.0600 C.ar      1 LIG         0.0000
      3 C2         21.7540  -14.6370   24.1720 C.ar      1 LIG         0.0000
      4 C3         22.0460  -13.6240   25.0770 C.ar      1 LIG         0.0000
      5 C4         21.0380  -13.0840   25.8760 C.ar      1 LIG         0.0000
      6 C5         19.7360  -13.5580   25.7650 C.ar      1 LIG         0.0000
      7 C6         19.4380  -14.5680   24.8540 C.ar      1 LIG         0.0000
      8 C7         18.0200  -15.0840   24.7410 C.3       1 LIG         0.0000
      9 C8         17.6300  -15.1850   23.2700 C.3       1 LIG         0.0000
     10 C9         17.2830  -13.8210   22.7350 C.2       1 LIG         0.0000
     11 C10        17.7740  -11.9880   21.2330 C.3       1 LIG         0.0000
     12 C11        16.3830  -11.9630   20.6550 C.2       1 LIG         0.0000
     13 C12        14.2330  -10.7040   20.4400 C.3       1 LIG         0.0000
     14 C13        13.2640  -10.6040   21.6020 C.ar      1 LIG         0.0000
     15 C14        18.8090  -11.8000   20.1290 C.3       1 LIG         0.0000
     16 C15        19.5060  -13.1370   19.9370 C.3       1 LIG         0.0000
     17 C16        19.2710  -13.9260   21.2160 C.3       1 LIG         0.0000
     18 C17        11.5220  -11.5700   22.8360 C.ar      1 LIG         0.0000
     19 C18        11.4780  -10.4810   23.7070 C.ar      1 LIG         0.0000
     20 C19        12.3620   -9.4240   23.5200 C.ar      1 LIG         0.0000
     21 C20        13.2590   -9.4960   22.4520 C.ar      1 LIG         0.0000
     22 N21        16.4670  -16.0470   23.1480 N.3       1 LIG         0.0000
     23 N22        18.0770  -13.3080   21.7950 N.am      1 LIG         0.0000
     24 N23        15.6070  -10.9010   20.9080 N.am      1 LIG         0.0000
     25 N24        12.3970  -11.6160   21.8180 N.ar      1 LIG         0.0000
     26 O25        16.2960  -13.2280   23.1540 O.2       1 LIG         0.0000
     27 O26        15.9960  -12.9110   19.9890 O.2       1 LIG         0.0000
     28 H01        20.2160  -15.9060   23.3520 H         1 LIG         0.0000
     29 H02        22.5440  -15.0600   23.5510 H         1 LIG         0.0000
     30 H03        23.0660  -13.2500   25.1630 H         1 LIG         0.0000
     31 H04        21.2710  -12.2910   26.5870 H         1 LIG         0.0000
     32 H05        18.9480  -13.1390   26.3910 H         1 LIG         0.0000
     33 H06        17.3430  -14.3980   25.2490 H         1 LIG         0.0000
     34 H07        17.9530  -16.0690   25.2040 H         1 LIG         0.0000
     35 H08        18.4670  -15.5940   22.7030 H         1 LIG         0.0000
     36 H09        17.8130  -11.1990   21.9840 H         1 LIG         0.0000
     37 H10        14.1920   -9.7720   19.8770 H         1 LIG         0.0000
     38 H11        13.9470  -11.5470   19.8100 H         1 LIG         0.0000
     39 H12        19.5260  -11.0240   20.3980 H         1 LIG         0.0000
     40 H13        18.3190  -11.4970   19.2040 H         1 LIG         0.0000
     41 H14        20.5700  -13.0050   19.7420 H         1 LIG         0.0000
     42 H15        19.0820  -13.6660   19.0830 H         1 LIG         0.0000
     43 H16        20.1270  -13.9000   21.8900 H         1 LIG         0.0000
     44 H17        19.0960  -14.9790   20.9970 H         1 LIG         0.0000
     45 H18        10.8320  -12.4010   22.9850 H         1 LIG         0.0000
     46 H19        10.7580  -10.4590   24.5250 H         1 LIG         0.0000
     47 H20        13.9610   -8.6800   22.2800 H         1 LIG         0.0000
     48 H21        16.6950  -16.8400   22.5650 H         1 LIG         0.0000
     49 H22        16.1890  -16.3700   24.0640 H         1 LIG         0.0000
     50 H23        16.0070  -10.1670   21.4750 H         1 LIG         0.0000
@<TRIPOS>BOND
     1    2    3 2  
     2    2   28 1  
     3    3    4 1  
     4    3   29 1  
     5    4   30 1  
     6    4    5 2  
     7    5   31 1  
     8    5    6 1  
     9    6   32 1  
    10    2    7 1  
    11    6    7 2  
    12    7    8 1  
    13    8   33 1  
    14    8   34 1  
    15    8    9 1  
    16    9   10 1  
    17    9   35 1  
    18   10   23 am 
    19   10   26 2  
    20   11   12 1  
    21   11   15 1  
    22   11   36 1  
    23   12   24 am 
    24   12   27 2  
    25   13   14 1  
    26   13   24 1  
    27   13   37 1  
    28   13   38 1  
    29   14   21 2  
    30   14   25 1  
    31   15   16 1  
    32   15   39 1  
    33   15   40 1  
    34   16   17 1  
    35   16   41 1  
    36   16   42 1  
    37   17   43 1  
    38   17   44 1  
    39   18   19 1  
    40   18   25 2  
    41   18   45 1  
    42   19   20 2  
    43   19   46 1  
    44    1   20 1  
    45   20   21 1  
    46   21   47 1  
    47    9   22 1  
    48   22   48 1  
    49   22   49 1  
    50   11   23 1  
    51   17   23 1  
    52   24   50 1  
