#

@<TRIPOS>MOLECULE
2zfp
 44 45 0 0 0
SMALL
USER_CHARGES

@<TRIPOS>ATOM
      1 N          16.5370  -15.8360   23.3100 N.3       1 LIG         0.0000
      2 CL21       12.1580   -8.0080   24.6450 Cl        1 LIG         0.0000
      3 C1         18.3830  -14.7220   24.4870 C.3       1 LIG         0.0000
      4 N1         18.1120  -13.1040   21.4600 N.am      1 LIG         0.0000
      5 C2         18.7040  -11.8010   19.6800 C.3       1 LIG         0.0000
      6 C3         19.9930  -12.4470   20.2640 C.3       1 LIG         0.0000
      7 C4         19.4170  -13.6460   21.0650 C.3       1 LIG         0.0000
      8 C7         16.3290  -11.6340   20.5720 C.2       1 LIG         0.0000
      9 C12        17.7820  -11.7870   20.9290 C.3       1 LIG         0.0000
     10 C14        17.3840  -13.6710   22.4600 C.2       1 LIG         0.0000
     11 C15        17.7460  -15.0060   23.0980 C.3       1 LIG         0.0000
     12 C17        19.8130  -14.1810   24.2950 C.3       1 LIG         0.0000
     13 O22        15.7310  -12.5940   20.1030 O.2       1 LIG         0.0000
     14 N23        15.6920  -10.4550   20.8000 N.am      1 LIG         0.0000
     15 C24        14.3020  -10.3570   20.3610 C.3       1 LIG         0.0000
     16 C25        13.3070  -10.3530   21.5240 C.ar      1 LIG         0.0000
     17 C26        12.4580  -11.4560   21.6750 C.ar      1 LIG         0.0000
     18 C27        11.5310  -11.5060   22.7180 C.ar      1 LIG         0.0000
     19 C28        11.4440  -10.4450   23.6260 C.ar      1 LIG         0.0000
     20 C29        12.2860   -9.3320   23.4900 C.ar      1 LIG         0.0000
     21 C30        13.2110   -9.2950   22.4380 C.ar      1 LIG         0.0000
     22 O32        16.3750  -13.1400   22.9140 O.2       1 LIG         0.0000
     23 H01        16.2750  -15.8080   24.2850 H         1 LIG         0.0000
     24 H02        17.7830  -13.9820   25.0170 H         1 LIG         0.0000
     25 H03        18.4170  -15.6440   25.0670 H         1 LIG         0.0000
     26 H04        18.2880  -12.3300   18.8220 H         1 LIG         0.0000
     27 H05        18.8930  -10.7930   19.3110 H         1 LIG         0.0000
     28 H06        20.5940  -11.7640   20.8650 H         1 LIG         0.0000
     29 H07        20.6620  -12.7830   19.4720 H         1 LIG         0.0000
     30 H08        19.3690  -14.5820   20.5080 H         1 LIG         0.0000
     31 H09        20.0330  -13.8850   21.9320 H         1 LIG         0.0000
     32 H10        17.9310  -10.9590   21.6220 H         1 LIG         0.0000
     33 H11        16.7310  -16.7900   23.0410 H         1 LIG         0.0000
     34 H12        18.4320  -15.5380   22.4390 H         1 LIG         0.0000
     35 H13        20.4910  -15.0110   24.0980 H         1 LIG         0.0000
     36 H14        19.8310  -13.4900   23.4520 H         1 LIG         0.0000
     37 H15        20.1300  -13.6600   25.1990 H         1 LIG         0.0000
     38 H16        16.1580   -9.6820   21.2520 H         1 LIG         0.0000
     39 H17        14.0890  -11.2360   19.7530 H         1 LIG         0.0000
     40 H18        14.1800   -9.4330   19.7950 H         1 LIG         0.0000
     41 H19        12.5210  -12.2850   20.9700 H         1 LIG         0.0000
     42 H20        10.8760  -12.3710   22.8250 H         1 LIG         0.0000
     43 H21        10.7210  -10.4840   24.4400 H         1 LIG         0.0000
     44 H22        13.8660   -8.4300   22.3290 H         1 LIG         0.0000
@<TRIPOS>BOND
     1    1   11 1  
     2    1   23 1  
     3    1   33 1  
     4    3   12 1  
     5    3   24 1  
     6    3   25 1  
     7    4    7 1  
     8    4    9 1  
     9    5    6 1  
    10    5   26 1  
    11    5   27 1  
    12    6    7 1  
    13    6   28 1  
    14    6   29 1  
    15    7   30 1  
    16    7   31 1  
    17    8   13 2  
    18    8   14 am 
    19    5    9 1  
    20    8    9 1  
    21    9   32 1  
    22    4   10 am 
    23   10   22 2  
    24    3   11 1  
    25   10   11 1  
    26   11   34 1  
    27   12   35 1  
    28   12   36 1  
    29   12   37 1  
    30   14   15 1  
    31   14   38 1  
    32   15   16 1  
    33   15   39 1  
    34   15   40 1  
    35   16   17 2  
    36   16   21 1  
    37   17   18 1  
    38   17   41 1  
    39   18   19 2  
    40   18   42 1  
    41   19   20 1  
    42   19   43 1  
    43    2   20 1  
    44   20   21 2  
    45   21   44 1  
