#

@<TRIPOS>MOLECULE
GR3
 85 88 0 0 0
SMALL
USER_CHARGES

@<TRIPOS>ATOM
      1 H09        -2.9090   21.1780   72.0600 H         1 LIG         0.0000
      2 H11        -4.7210   24.5310   74.8620 H         1 LIG         0.0000
      3 H10        -1.9830   24.5530   73.7500 H         1 LIG         0.0000
      4 H16        -3.4610   19.7800   74.1410 H         1 LIG         0.0000
      5 H15        -1.8500   20.3840   73.8200 H         1 LIG         0.0000
      6 H14        -2.4740   24.4310   76.7180 H         1 LIG         0.0000
      7 H18        -3.5800   21.3160   77.2600 H         1 LIG         0.0000
      8 H12        -3.3870   25.7180   75.1470 H         1 LIG         0.0000
      9 H24        -5.4250   23.9840   72.9160 H         1 LIG         0.0000
     10 H19        -0.3980   21.8890   75.9700 H         1 LIG         0.0000
     11 H22        -5.6650   25.5420   72.0920 H         1 LIG         0.0000
     12 H21        -0.6480   23.6500   76.0320 H         1 LIG         0.0000
     13 H32         0.2570   26.0280   78.7380 H         1 LIG         0.0000
     14 H20        -0.7650   22.7870   74.4780 H         1 LIG         0.0000
     15 H27        -2.4930   24.4920   80.8570 H         1 LIG         0.0000
     16 H26        -2.7400   22.1710   79.8660 H         1 LIG         0.0000
     17 H13        -4.0780   23.5490   76.6730 H         1 LIG         0.0000
     18 H25        -2.9360   23.1730   78.3730 H         1 LIG         0.0000
     19 H31         1.2320   25.4700   80.1180 H         1 LIG         0.0000
     20 H30        -1.3920   27.7010   81.0840 H         1 LIG         0.0000
     21 H29        -0.7250   26.7210   82.4130 H         1 LIG         0.0000
     22 H40        -3.2090   18.9710   77.2510 H         1 LIG         0.0000
     23 H35        -5.0120   20.7570   75.1000 H         1 LIG         0.0000
     24 H34        -5.2640   22.0110   73.8630 H         1 LIG         0.0000
     25 H33         0.6610   27.1540   80.0570 H         1 LIG         0.0000
     26 H36        -5.0830   22.4720   75.5720 H         1 LIG         0.0000
     27 H39        -4.2930   24.1970   69.2290 H         1 LIG         0.0000
     28 H38        -3.6450   25.3640   68.0510 H         1 LIG         0.0000
     29 H37        -4.7560   25.9120   69.3290 H         1 LIG         0.0000
     30 H23        -5.0950   24.1290   71.1730 H         1 LIG         0.0000
     31 H44        -1.3030   28.2510   68.2430 H         1 LIG         0.0000
     32 H43        -0.3200   29.5940   68.8750 H         1 LIG         0.0000
     33 H42        -1.9620   29.3210   69.5030 H         1 LIG         0.0000
     34 H45        -0.7650   21.4470   77.6630 H         1 LIG         0.0000
     35 H41        -1.9860   23.8670   68.0400 H         1 LIG         0.0000
     36 H17        -1.2370   19.8170   76.0370 H         1 LIG         0.0000
     37 H46        -2.8010   19.8550   79.3820 H         1 LIG         0.0000
     38 H28        -2.3820   26.4260   81.8340 H         1 LIG         0.0000
     39 H01        -4.1980   26.8170   73.4570 H         1 LIG         0.0000
     40 H02        -2.4530   26.7530   73.0430 H         1 LIG         0.0000
     41 H03        -3.6540   28.4080   71.6670 H         1 LIG         0.0000
     42 H04        -4.7560   27.1370   71.0950 H         1 LIG         0.0000
     43 H05        -3.0030   27.4850   69.4530 H         1 LIG         0.0000
     44 H06        -1.7060   24.7840   71.6720 H         1 LIG         0.0000
     45 H07        -1.9090   22.8090   70.4170 H         1 LIG         0.0000
     46 H08        -3.6990   22.9470   70.3180 H         1 LIG         0.0000
     47 C          -3.4650   26.5370   72.7010 C.3       1 LIG         0.0000
     48 C1         -3.7450   27.3450   71.4460 C.3       1 LIG         0.0000
     49 C2         -2.7480   26.9620   70.3750 C.3       1 LIG         0.0000
     50 C3         -2.7420   25.4930   70.0210 C.3       1 LIG         0.0000
     51 C4         -2.7060   24.6080   71.2750 C.3       1 LIG         0.0000
     52 C5         -2.8180   23.1050   70.9400 C.3       1 LIG         0.0000
     53 C6         -2.9370   22.2620   72.1700 C.2       1 LIG         0.0000
     54 C7         -3.0770   22.7760   73.4040 C.2       1 LIG         0.0000
     55 C8         -3.0310   24.2700   73.6490 C.3       1 LIG         0.0000
     56 C9         -3.5930   25.0320   72.4420 C.3       1 LIG         0.0000
     57 C10        -3.6450   24.6770   74.9530 C.3       1 LIG         0.0000
     58 C11        -3.1720   23.8300   76.1360 C.3       1 LIG         0.0000
     59 C12        -2.4710   22.4990   75.7870 C.3       1 LIG         0.0000
     60 C13        -3.2310   21.8910   74.6060 C.3       1 LIG         0.0000
     61 C14        -2.6900   20.4560   74.5110 C.3       1 LIG         0.0000
     62 C15        -2.2890   20.0820   75.9280 C.3       1 LIG         0.0000
     63 C16        -2.5910   21.3260   76.8020 C.3       1 LIG         0.0000
     64 C17        -0.9590   22.7230   75.5490 C.3       1 LIG         0.0000
     65 C18        -5.0510   24.6430   72.1330 C.3       1 LIG         0.0000
     66 C19        -2.2520   22.5820   78.9820 C.3       1 LIG         0.0000
     67 C20        -1.1610   23.4890   79.4230 C.2       1 LIG         0.0000
     68 C21        -1.5490   24.5970   80.3230 C.2       1 LIG         0.0000
     69 C22        -0.8490   25.7180   80.5430 C.2       1 LIG         0.0000
     70 C23        -1.3720   26.7090   81.5360 C.3       1 LIG         0.0000
     71 C24         0.4130   26.1210   79.8130 C.3       1 LIG         0.0000
     72 C25        -4.7600   21.7740   74.8000 C.3       1 LIG         0.0000
     73 C26        -1.4820   25.1050   69.2060 C.2       1 LIG         0.0000
     74 C27        -3.9480   25.2210   69.0880 C.3       1 LIG         0.0000
     75 O          -0.3710   25.0650   69.6420 O.2       1 LIG         0.0000
     76 O1         -3.0590   18.9560   76.3030 O.3       1 LIG         0.0000
     77 O2         -0.8360   19.8870   79.7180 O.2       1 LIG         0.0000
     78 O3         -1.6470   24.7650   68.0620 O.3       1 LIG         0.0000
     79 O4         -0.0370   23.3760   78.9710 O.2       1 LIG         0.0000
     80 O5         -1.4710   27.2930   70.9280 O.3       1 LIG         0.0000
     81 C28        -0.4910   27.9080   70.2160 C.2       1 LIG         0.0000
     82 C29        -1.0600   28.8360   69.1300 C.3       1 LIG         0.0000
     83 O6          0.6930   27.9450   70.4820 O.2       1 LIG         0.0000
     84 C30        -1.7590   21.4140   78.1080 C.3       1 LIG         0.0000
     85 C31        -1.8330   20.2970   79.1460 C.2       1 LIG         0.0000
@<TRIPOS>BOND
     1   39   47 1  
     2   40   47 1  
     3   47   48 1  
     4   47   56 1  
     5   41   48 1  
     6   42   48 1  
     7   48   49 1  
     8   43   49 1  
     9   49   50 1  
    10   49   80 1  
    11   50   51 1  
    12   50   73 1  
    13   50   74 1  
    14   44   51 1  
    15   51   52 1  
    16   51   56 1  
    17   45   52 1  
    18   46   52 1  
    19   52   53 1  
    20    1   53 1  
    21   53   54 2  
    22   54   55 1  
    23   54   60 1  
    24    3   55 1  
    25   55   56 1  
    26   55   57 1  
    27   56   65 1  
    28    2   57 1  
    29    8   57 1  
    30   57   58 1  
    31    6   58 1  
    32   17   58 1  
    33   58   59 1  
    34   59   60 1  
    35   59   63 1  
    36   59   64 1  
    37   60   61 1  
    38   60   72 1  
    39    4   61 1  
    40    5   61 1  
    41   61   62 1  
    42   36   62 1  
    43   62   63 1  
    44   62   76 1  
    45    7   63 1  
    46   63   84 1  
    47   10   64 1  
    48   12   64 1  
    49   14   64 1  
    50    9   65 1  
    51   11   65 1  
    52   30   65 1  
    53   16   66 1  
    54   18   66 1  
    55   66   67 1  
    56   66   84 1  
    57   67   68 1  
    58   67   79 2  
    59   15   68 1  
    60   68   69 2  
    61   69   70 1  
    62   69   71 1  
    63   20   70 1  
    64   21   70 1  
    65   38   70 1  
    66   13   71 1  
    67   19   71 1  
    68   25   71 1  
    69   23   72 1  
    70   24   72 1  
    71   26   72 1  
    72   73   75 2  
    73   73   78 1  
    74   27   74 1  
    75   28   74 1  
    76   29   74 1  
    77   22   76 1  
    78   77   85 2  
    79   35   78 1  
    80   80   81 1  
    81   81   82 1  
    82   81   83 2  
    83   31   82 1  
    84   32   82 1  
    85   33   82 1  
    86   34   84 1  
    87   84   85 1  
    88   37   85 1  
