#

@<TRIPOS>MOLECULE
00R
 66 70 0 0 0
SMALL
USER_CHARGES

@<TRIPOS>ATOM
      1 H08        13.8440  -12.2500   22.7160 H         1 LIG         0.0000
      2 H28        23.0260  -15.9720   23.9770 H         1 LIG         0.0000
      3 H29        21.2160  -17.5250   24.6510 H         1 LIG         0.0000
      4 H01        12.7450  -11.2040   19.2450 H         1 LIG         0.0000
      5 H13        21.3560  -12.9900   19.7740 H         1 LIG         0.0000
      6 H26        21.2040  -12.8650   26.3070 H         1 LIG         0.0000
      7 H27        22.9990  -13.6340   24.8030 H         1 LIG         0.0000
      8 H11        20.9100  -15.4300   20.3160 H         1 LIG         0.0000
      9 H09        11.9410  -10.3640   21.3460 H         1 LIG         0.0000
     10 H04        14.1260  -14.4790   20.7100 H         1 LIG         0.0000
     11 H07        11.3840  -13.2060   21.0320 H         1 LIG         0.0000
     12 H06        12.2490  -14.2550   22.1540 H         1 LIG         0.0000
     13 H17        11.9540  -13.7880   24.2910 H         1 LIG         0.0000
     14 H05        12.9810  -13.9330   19.4060 H         1 LIG         0.0000
     15 H12        21.3870  -14.6330   21.8610 H         1 LIG         0.0000
     16 H03        14.9220  -12.6230   19.0740 H         1 LIG         0.0000
     17 H10        13.5990  -10.0600   21.9740 H         1 LIG         0.0000
     18 H02        14.1890  -10.2580   19.6400 H         1 LIG         0.0000
     19 H16        15.5240  -11.8990   21.8750 H         1 LIG         0.0000
     20 H15        18.0680  -12.1340   22.0580 H         1 LIG         0.0000
     21 H14        19.4080  -11.6300   20.0450 H         1 LIG         0.0000
     22 H25        19.3940  -14.4050   26.9980 H         1 LIG         0.0000
     23 H20         9.6220  -12.5260   26.7760 H         1 LIG         0.0000
     24 H19        10.5060  -13.9330   26.2260 H         1 LIG         0.0000
     25 H18        11.5460   -9.8240   23.0400 H         1 LIG         0.0000
     26 H21        16.8610  -17.8310   23.2620 H         1 LIG         0.0000
     27 H24        17.8630  -18.9200   25.0040 H         1 LIG         0.0000
     28 H23        19.2350  -18.0970   24.1540 H         1 LIG         0.0000
     29 H22        16.6730  -16.6590   24.6240 H         1 LIG         0.0000
     30 C          13.5570  -11.0860   19.9620 C.3       1 LIG         0.0000
     31 C1         14.4460  -12.4670   20.0420 C.3       1 LIG         0.0000
     32 C2         13.4950  -13.6750   20.3320 C.3       1 LIG         0.0000
     33 C3         12.3520  -13.3920   21.4960 C.3       1 LIG         0.0000
     34 C4         12.8360  -12.0680   22.3430 C.3       1 LIG         0.0000
     35 C5         12.9450  -10.7710   21.4690 C.3       1 LIG         0.0000
     36 N          18.0250  -16.1340   23.1370 N.ar      1 LIG         0.0000
     37 C6         19.1440  -16.3230   22.3250 C.ar      1 LIG         0.0000
     38 O          19.8090  -17.3580   22.1880 O.2       1 LIG         0.0000
     39 N1         19.3820  -15.1200   21.6610 N.ar      1 LIG         0.0000
     40 N2         18.3990  -14.2200   22.0660 N.ar      1 LIG         0.0000
     41 C7         17.5690  -14.8270   22.9990 C.ar      1 LIG         0.0000
     42 O1         16.5890  -14.3440   23.5610 O.2       1 LIG         0.0000
     43 C8         20.6360  -14.6960   21.0740 C.3       1 LIG         0.0000
     44 C9         20.5340  -13.3510   20.3930 C.2       1 LIG         0.0000
     45 C10        19.4230  -12.5950   20.5510 C.2       1 LIG         0.0000
     46 C11        18.2030  -12.9610   21.3610 C.3       1 LIG         0.0000
     47 C12        16.9240  -13.1160   20.5000 C.2       1 LIG         0.0000
     48 O2         16.9030  -13.8470   19.2370 O.2       1 LIG         0.0000
     49 N3         15.5870  -12.3820   20.9900 N.am      1 LIG         0.0000
     50 C13        12.0340  -11.9000   23.2690 C.ar      1 LIG         0.0000
     51 N4         11.6470  -12.8270   24.2480 N.ar      1 LIG         0.0000
     52 C14        10.7930  -12.2360   25.1330 C.ar      1 LIG         0.0000
     53 N5         10.6170  -10.9750   24.7980 N.ar      1 LIG         0.0000
     54 C15        11.4440  -10.7640   23.5830 C.ar      1 LIG         0.0000
     55 N6         10.2640  -12.9570   26.1260 N.pl3     1 LIG         0.0000
     56 C16        17.3700  -17.1500   23.9450 C.3       1 LIG         0.0000
     57 C17        18.3370  -17.9690   24.7590 C.3       1 LIG         0.0000
     58 S          18.8410  -17.1800   26.2810 S.O2      1 LIG         0.0000
     59 O3         17.6720  -16.3950   26.7250 O.2       1 LIG         0.0000
     60 O4         19.2610  -18.2340   27.1910 O.2       1 LIG         0.0000
     61 C18        20.1650  -16.0750   25.8620 C.ar      1 LIG         0.0000
     62 C19        20.1810  -14.7560   26.3300 C.ar      1 LIG         0.0000
     63 C20        21.2000  -13.8930   25.9430 C.ar      1 LIG         0.0000
     64 C21        22.2100  -14.3250   25.1010 C.ar      1 LIG         0.0000
     65 C22        22.2260  -15.6300   24.6340 C.ar      1 LIG         0.0000
     66 C23        21.2070  -16.4980   25.0150 C.ar      1 LIG         0.0000
@<TRIPOS>BOND
     1    4   30 1  
     2   18   30 1  
     3   30   31 1  
     4   30   35 1  
     5   16   31 1  
     6   31   32 1  
     7   31   49 1  
     8   10   32 1  
     9   14   32 1  
    10   32   33 1  
    11   11   33 1  
    12   12   33 1  
    13   33   34 1  
    14    1   34 1  
    15   34   35 1  
    16   34   50 1  
    17    9   35 1  
    18   17   35 1  
    19   36   37 am 
    20   36   41 am 
    21   36   56 1  
    22   37   38 2  
    23   37   39 am 
    24   39   40 1  
    25   39   43 1  
    26   40   41 am 
    27   40   46 1  
    28   41   42 2  
    29    8   43 1  
    30   15   43 1  
    31   43   44 1  
    32    5   44 1  
    33   44   45 2  
    34   21   45 1  
    35   45   46 1  
    36   20   46 1  
    37   46   47 1  
    38   47   48 2  
    39   47   49 am 
    40   19   49 1  
    41   50   51 1  
    42   50   54 2  
    43   13   51 1  
    44   51   52 1  
    45   52   53 2  
    46   52   55 1  
    47   53   54 1  
    48   25   54 1  
    49   23   55 1  
    50   24   55 1  
    51   26   56 1  
    52   29   56 1  
    53   56   57 1  
    54   27   57 1  
    55   28   57 1  
    56   57   58 1  
    57   58   59 1  
    58   58   60 1  
    59   58   61 1  
    60   61   62 1  
    61   61   66 2  
    62   22   62 1  
    63   62   63 2  
    64    6   63 1  
    65   63   64 1  
    66    7   64 1  
    67   64   65 2  
    68    2   65 1  
    69   65   66 1  
    70    3   66 1  
