#

@<TRIPOS>MOLECULE
tmp2.pdb
 50 52 0 0 0
SMALL
GASTEIGER

@<TRIPOS>ATOM
      1 C1         17.7150  -14.9220   23.1100 C.3       1 LIG         0.0865
      2 N1         16.4140  -15.6680   22.9980 N.3       1 LIG        -0.3197
      3 O1         16.7590  -12.7380   23.0730 O.2       1 LIG        -0.2739
      4 C2         17.5860  -13.4970   22.5570 C.2       1 LIG         0.2333
      5 N2         18.3600  -13.0680   21.5130 N.am      1 LIG        -0.2886
      6 O2         16.2960  -12.5060   19.6440 O.2       1 LIG        -0.2738
      7 C3         18.2050  -14.8380   24.5870 C.3       1 LIG        -0.0039
      8 N3         16.1490  -10.4330   20.5330 N.am      1 LIG        -0.3097
      9 C4         19.6180  -14.2830   24.6940 C.ar      1 LIG        -0.0454
     10 N4         11.7980  -11.1540   22.9790 N.ar      1 LIG        -0.2632
     11 C5         20.6990  -14.9770   24.1220 C.ar      1 LIG        -0.0585
     12 C6         19.8590  -13.0480   25.3240 C.ar      1 LIG        -0.0585
     13 C7         21.9930  -14.4380   24.1590 C.ar      1 LIG        -0.0615
     14 C8         21.1560  -12.5170   25.3790 C.ar      1 LIG        -0.0615
     15 C9         22.2220  -13.2110   24.7930 C.ar      1 LIG        -0.0617
     16 C10        18.1680  -11.7600   20.9100 C.3       1 LIG         0.1022
     17 C11        16.7850  -11.5970   20.3130 C.2       1 LIG         0.2338
     18 C12        19.2600  -11.6460   19.8290 C.3       1 LIG        -0.0243
     19 C13        20.2900  -12.7320   20.1700 C.3       1 LIG        -0.0350
     20 C14        19.4890  -13.7890   20.9280 C.3       1 LIG         0.0156
     21 C15        14.8010  -10.1960   20.0840 C.3       1 LIG         0.0370
     22 C16        13.7460  -10.5200   21.1040 C.ar      1 LIG        -0.0275
     23 C17        13.3310  -11.8510   21.2830 C.ar      1 LIG        -0.0389
     24 C18        12.3450  -12.1200   22.2430 C.ar      1 LIG         0.0279
     25 C19        12.1950   -9.8910   22.8400 C.ar      1 LIG         0.0279
     26 C20        13.1760   -9.5190   21.9080 C.ar      1 LIG        -0.0389
     27 H1         15.6400  -15.0080   23.0500 H         1 LIG         0.1189
     28 H2         16.2540  -16.3540   23.7230 H         1 LIG         0.1189
     29 H3         18.4590  -15.4940   22.5160 H         1 LIG         0.0558
     30 H4         18.2150  -15.8490   25.0420 H         1 LIG         0.0333
     31 H5         17.5140  -14.1990   25.1810 H         1 LIG         0.0333
     32 H6         20.5300  -15.9180   23.6220 H         1 LIG         0.0620
     33 H7         19.0380  -12.4990   25.7620 H         1 LIG         0.0620
     34 H8         22.8150  -14.9670   23.6980 H         1 LIG         0.0618
     35 H9         21.3340  -11.5710   25.8710 H         1 LIG         0.0618
     36 H10        23.2210  -12.7990   24.8310 H         1 LIG         0.0618
     37 H11        18.3330  -10.9890   21.6790 H         1 LIG         0.0597
     38 H12        19.7020  -10.6420   19.7850 H         1 LIG         0.0288
     39 H13        18.8510  -11.8490   18.8240 H         1 LIG         0.0288
     40 H14        21.0780  -12.3170   20.8190 H         1 LIG         0.0281
     41 H15        20.7880  -13.1380   19.2790 H         1 LIG         0.0281
     42 H16        19.0860  -14.5660   20.2600 H         1 LIG         0.0465
     43 H17        20.1080  -14.2780   21.6920 H         1 LIG         0.0465
     44 H18        14.6990   -9.1220   19.8090 H         1 LIG         0.0512
     45 H19        14.5680  -10.7790   19.1610 H         1 LIG         0.0512
     46 H20        13.7730  -12.6490   20.7070 H         1 LIG         0.0636
     47 H21        11.9990  -13.1340   22.4010 H         1 LIG         0.0829
     48 H22        11.7290   -9.1440   23.4710 H         1 LIG         0.0829
     49 H23        13.4820   -8.4910   21.8150 H         1 LIG         0.0636
     50 H24        16.5500   -9.7680   21.1510 H         1 LIG         0.1491
@<TRIPOS>BOND
     1   39   18 1  
     2   45   21 1  
     3   41   19 1  
     4    6   17 2  
     5   38   18 1  
     6   44   21 1  
     7   18   19 1  
     8   18   16 1  
     9   21    8 1  
    10   21   22 1  
    11   19   40 1  
    12   19   20 1  
    13   42   20 1  
    14   17    8 am 
    15   17   16 1  
    16    8   50 1  
    17   46   23 1  
    18   16    5 1  
    19   16   37 1  
    20   20    5 1  
    21   20   43 1  
    22   22   23 2  
    23   22   26 1  
    24   23   24 1  
    25    5    4 am 
    26   49   26 1  
    27   26   25 2  
    28   24   47 1  
    29   24   10 2  
    30   29    1 1  
    31    4    3 2  
    32    4    1 1  
    33   25   10 1  
    34   25   48 1  
    35    2   27 1  
    36    2    1 1  
    37    2   28 1  
    38    1    7 1  
    39   32   11 1  
    40   34   13 1  
    41   11   13 2  
    42   11    9 1  
    43   13   15 1  
    44    7    9 1  
    45    7   30 1  
    46    7   31 1  
    47    9   12 2  
    48   15   36 1  
    49   15   14 2  
    50   12   14 1  
    51   12   33 1  
    52   14   35 1  
