#

@<TRIPOS>MOLECULE
1ets
 69 72 0 0 0
SMALL
USER_CHARGES

@<TRIPOS>ATOM
      1 N         -37.7430  -31.5420   45.7410 N.3       1 LIG         0.0000
      2 CA        -36.8040  -31.2460   44.7000 C.3       1 LIG         0.0000
      3 CA1       -36.8080  -28.7550   41.9950 C.3       1 LIG         0.0000
      4 C         -37.3310  -30.0430   43.9490 C.2       1 LIG         0.0000
      5 O         -38.3210  -29.3770   44.2970 O.2       1 LIG         0.0000
      6 CB        -35.5080  -27.9520   41.9950 C.2       1 LIG         0.0000
      7 CB1       -37.1950  -29.2680   40.6250 C.3       1 LIG         0.0000
      8 CG        -38.5810  -29.8840   40.6330 C.ar      1 LIG         0.0000
      9 NG1       -42.6090  -32.7600   41.1140 N.2       1 LIG         0.0000
     10 NG2       -43.4470  -30.7100   40.4430 N.pl3     1 LIG         0.0000
     11 CD1       -38.7510  -31.2500   40.7230 C.ar      1 LIG         0.0000
     12 CD2       -39.6770  -29.0660   40.5420 C.ar      1 LIG         0.0000
     13 CE1       -40.0100  -31.8040   40.7820 C.ar      1 LIG         0.0000
     14 CE2       -40.9350  -29.6180   40.6020 C.ar      1 LIG         0.0000
     15 CZ        -41.1240  -30.9810   40.7110 C.ar      1 LIG         0.0000
     16 C1        -38.1890  -28.7440   48.0850 C.ar      1 LIG         0.0000
     17 N1        -36.5780  -29.8560   42.8920 N.am      1 LIG         0.0000
     18 O1        -34.6750  -28.0830   41.1030 O.2       1 LIG         0.0000
     19 O1S       -36.1430  -32.1060   47.6390 O.2       1 LIG         0.0000
     20 C2        -37.1270  -29.5950   47.7860 C.ar      1 LIG         0.0000
     21 O2S       -38.5750  -31.7440   48.0490 O.2       1 LIG         0.0000
     22 C3        -35.8140  -29.1890   47.9700 C.ar      1 LIG         0.0000
     23 C4        -35.5410  -27.9820   48.5800 C.ar      1 LIG         0.0000
     24 C5        -36.2550  -25.9070   49.4020 C.ar      1 LIG         0.0000
     25 C6        -37.2690  -25.0020   49.5860 C.ar      1 LIG         0.0000
     26 C7        -38.5750  -25.3700   49.3230 C.ar      1 LIG         0.0000
     27 C8        -38.9180  -26.6390   48.9050 C.ar      1 LIG         0.0000
     28 C9        -37.9070  -27.4960   48.5970 C.ar      1 LIG         0.0000
     29 C10       -36.5890  -27.1350   48.8700 C.ar      1 LIG         0.0000
     30 N11       -35.3110  -27.0940   42.9980 N.am      1 LIG         0.0000
     31 C21       -34.0690  -26.3880   43.2110 C.3       1 LIG         0.0000
     32 C31       -33.6300  -26.7280   44.6420 C.3       1 LIG         0.0000
     33 C41       -34.5750  -26.2790   45.7310 C.3       1 LIG         0.0000
     34 C51       -35.8200  -27.0390   45.3910 C.3       1 LIG         0.0000
     35 C61       -36.3370  -26.7910   43.9920 C.3       1 LIG         0.0000
     36 CF        -42.4130  -31.4950   40.7260 C.2       1 LIG         0.0000
     37 S         -37.3520  -31.2710   47.2640 S.O2      1 LIG         0.0000
     38 H         -38.6630  -31.3100   45.5030 H         1 LIG         0.0000
     39 HG1       -43.5080  -33.1720   41.1480 H         1 LIG         0.0000
     40 HG12      -41.8000  -33.3100   41.3750 H         1 LIG         0.0000
     41 HG21      -44.3910  -31.0260   40.4510 H         1 LIG         0.0000
     42 HG22      -43.2680  -29.7320   40.3140 H         1 LIG         0.0000
     43 H2        -35.8120  -30.4430   42.7020 H         1 LIG         0.0000
     44 H01       -36.6880  -32.0990   44.0310 H         1 LIG         0.0000
     45 H02       -35.8280  -31.0200   45.1300 H         1 LIG         0.0000
     46 H03       -37.6370  -28.1190   42.3050 H         1 LIG         0.0000
     47 H04       -36.4810  -30.0380   40.3340 H         1 LIG         0.0000
     48 H05       -37.1790  -28.4390   39.9180 H         1 LIG         0.0000
     49 H06       -37.8760  -31.9000   40.7480 H         1 LIG         0.0000
     50 H07       -39.5530  -27.9900   40.4230 H         1 LIG         0.0000
     51 H08       -40.1300  -32.8830   40.8840 H         1 LIG         0.0000
     52 H09       -41.8050  -28.9630   40.5620 H         1 LIG         0.0000
     53 H10       -39.2190  -29.0580   47.9180 H         1 LIG         0.0000
     54 H11       -34.9960  -29.8250   47.6320 H         1 LIG         0.0000
     55 H12       -34.5170  -27.7040   48.8280 H         1 LIG         0.0000
     56 H13       -35.2250  -25.6650   49.6660 H         1 LIG         0.0000
     57 H14       -37.0450  -23.9950   49.9390 H         1 LIG         0.0000
     58 H15       -39.3640  -24.6290   49.4510 H         1 LIG         0.0000
     59 H16       -39.9610  -26.9440   48.8240 H         1 LIG         0.0000
     60 H17       -34.1920  -25.3130   43.0760 H         1 LIG         0.0000
     61 H18       -33.3170  -26.7180   42.4950 H         1 LIG         0.0000
     62 H19       -32.6990  -26.1850   44.8080 H         1 LIG         0.0000
     63 H20       -33.5220  -27.8100   44.7140 H         1 LIG         0.0000
     64 H21       -34.7160  -25.1990   45.7740 H         1 LIG         0.0000
     65 H22       -34.2010  -26.5500   46.7180 H         1 LIG         0.0000
     66 H23       -36.5940  -26.6930   46.0760 H         1 LIG         0.0000
     67 H24       -35.6100  -28.1040   45.4940 H         1 LIG         0.0000
     68 H25       -37.1950  -27.4400   43.8170 H         1 LIG         0.0000
     69 H26       -36.6280  -25.7450   43.8980 H         1 LIG         0.0000
@<TRIPOS>BOND
     1    1    2 1  
     2    1   37 1  
     3    1   38 1  
     4    2    4 1  
     5    2   44 1  
     6    2   45 1  
     7    3    6 1  
     8    3    7 1  
     9    3   17 1  
    10    3   46 1  
    11    4    5 2  
    12    4   17 am 
    13    6   18 2  
    14    6   30 am 
    15    7    8 1  
    16    7   47 1  
    17    7   48 1  
    18    8   11 2  
    19    8   12 1  
    20    9   36 2  
    21    9   39 1  
    22    9   40 1  
    23   10   36 1  
    24   10   41 1  
    25   10   42 1  
    26   11   13 1  
    27   11   49 1  
    28   12   14 2  
    29   12   50 1  
    30   13   15 2  
    31   13   51 1  
    32   14   15 1  
    33   14   52 1  
    34   15   36 1  
    35   16   20 2  
    36   16   28 1  
    37   16   53 1  
    38   17   43 1  
    39   19   37 1  
    40   20   22 1  
    41   20   37 1  
    42   21   37 1  
    43   22   23 2  
    44   22   54 1  
    45   23   29 1  
    46   23   55 1  
    47   24   25 2  
    48   24   29 1  
    49   24   56 1  
    50   25   26 1  
    51   25   57 1  
    52   26   27 2  
    53   26   58 1  
    54   27   28 1  
    55   27   59 1  
    56   28   29 2  
    57   30   31 1  
    58   30   35 1  
    59   31   32 1  
    60   31   60 1  
    61   31   61 1  
    62   32   33 1  
    63   32   62 1  
    64   32   63 1  
    65   33   34 1  
    66   33   64 1  
    67   33   65 1  
    68   34   35 1  
    69   34   66 1  
    70   34   67 1  
    71   35   68 1  
    72   35   69 1  
