#

@<TRIPOS>MOLECULE
170
 54 57 0 0 0
SMALL
USER_CHARGES

@<TRIPOS>ATOM
      1 H09        18.1580  -12.0720   19.7670 H         1 LIG         0.0000
      2 H03        23.0860  -13.9230   24.7850 H         1 LIG         0.0000
      3 H04        21.2110  -12.7670   26.0150 H         1 LIG         0.0000
      4 H06        18.7170  -17.5350   23.9560 H         1 LIG         0.0000
      5 H07        16.3000  -15.7790   24.1730 H         1 LIG         0.0000
      6 H08        20.9510  -15.4270   21.1840 H         1 LIG         0.0000
      7 H02        22.8610  -16.3940   24.1780 H         1 LIG         0.0000
      8 H13        13.7060  -10.4780   19.6500 H         1 LIG         0.0000
      9 H15        10.9110  -11.2980   24.8130 H         1 LIG         0.0000
     10 H11        15.8240  -10.4690   20.9130 H         1 LIG         0.0000
     11 H17        13.9800  -14.7810   22.4730 H         1 LIG         0.0000
     12 H16        10.9260  -13.4000   23.3720 H         1 LIG         0.0000
     13 H05        17.1860  -17.9260   24.8210 H         1 LIG         0.0000
     14 H10        17.7390  -11.4490   21.3950 H         1 LIG         0.0000
     15 H01        19.0690  -13.9870   26.6080 H         1 LIG         0.0000
     16 H12        13.7620  -12.2750   19.7050 H         1 LIG         0.0000
     17 H14        13.6730   -9.2790   22.0330 H         1 LIG         0.0000
     18 C          19.8850  -14.4930   26.0920 C.ar      1 LIG         0.0000
     19 C1         19.8090  -15.8920   25.7160 C.ar      1 LIG         0.0000
     20 N          20.8840  -16.4990   25.0550 N.ar      1 LIG         0.0000
     21 C2         22.0630  -15.8640   24.6980 C.ar      1 LIG         0.0000
     22 C3         22.1840  -14.4770   25.0450 C.ar      1 LIG         0.0000
     23 C4         21.0990  -13.8170   25.7440 C.ar      1 LIG         0.0000
     24 C5         18.5420  -16.7220   25.9220 C.3       1 LIG         0.0000
     25 C6         17.9270  -17.1560   24.6050 C.3       1 LIG         0.0000
     26 N1         17.2390  -16.0490   23.9180 N.pl3     1 LIG         0.0000
     27 C7         17.9430  -15.3750   22.8840 C.ar      1 LIG         0.0000
     28 C8         17.4220  -14.1380   22.2760 C.ar      1 LIG         0.0000
     29 N2         18.1450  -13.5090   21.2900 N.ar      1 LIG         0.0000
     30 C9         19.4450  -13.9240   20.8140 C.ar      1 LIG         0.0000
     31 C10        19.9520  -15.0780   21.4460 C.ar      1 LIG         0.0000
     32 N3         19.2190  -15.7850   22.3930 N.ar      1 LIG         0.0000
     33 O          16.3470  -13.6760   22.6470 O.2       1 LIG         0.0000
     34 CL         20.2940  -13.0680   19.6270 Cl        1 LIG         0.0000
     35 C11        17.6120  -12.2700   20.6890 C.3       1 LIG         0.0000
     36 C12        16.1360  -12.4120   20.3520 C.2       1 LIG         0.0000
     37 N4         15.3990  -11.3120   20.5550 N.am      1 LIG         0.0000
     38 O1         15.6960  -13.4630   19.8970 O.2       1 LIG         0.0000
     39 C13        13.9620  -11.3520   20.2480 C.3       1 LIG         0.0000
     40 C14        13.1050  -11.3550   21.5070 C.ar      1 LIG         0.0000
     41 C15        13.0960  -10.1610   22.3090 C.ar      1 LIG         0.0000
     42 C16        12.2840  -10.1950   23.4950 C.ar      1 LIG         0.0000
     43 C17        11.5040  -11.3370   23.8990 C.ar      1 LIG         0.0000
     44 C18        12.3340  -12.4970   21.9000 C.ar      1 LIG         0.0000
     45 C19        11.5100  -12.5220   23.0980 C.ar      1 LIG         0.0000
     46 F          18.8320  -17.8780   26.5420 F         1 LIG         0.0000
     47 F1         17.6180  -16.0780   26.6550 F         1 LIG         0.0000
     48 CL1        12.2380   -8.7570   24.4850 Cl        1 LIG         0.0000
     49 O2         20.7720  -17.8030   24.7230 O.3       1 LIG         0.0000
     50 N5         13.2350  -15.7030   20.5450 N.ar      1 LIG         0.0000
     51 N6         12.3840  -15.2320   19.8030 N.ar      1 LIG         0.0000
     52 N7         11.9670  -14.1020   20.2010 N.ar      1 LIG         0.0000
     53 N8         12.4750  -13.6680   21.2150 N.ar      1 LIG         0.0000
     54 C20        13.3510  -14.7260   21.5840 C.ar      1 LIG         0.0000
@<TRIPOS>BOND
     1   15   18 1  
     2   18   19 1  
     3   18   23 2  
     4   19   20 2  
     5   19   24 1  
     6   20   21 1  
     7   20   49 1  
     8    7   21 1  
     9   21   22 2  
    10    2   22 1  
    11   22   23 1  
    12    3   23 1  
    13   24   25 1  
    14   24   46 1  
    15   24   47 1  
    16    4   25 1  
    17   13   25 1  
    18   25   26 1  
    19    5   26 1  
    20   26   27 1  
    21   27   28 1  
    22   27   32 2  
    23   28   29 am 
    24   28   33 2  
    25   29   30 1  
    26   29   35 1  
    27   30   31 2  
    28   30   34 1  
    29    6   31 1  
    30   31   32 1  
    31    1   35 1  
    32   14   35 1  
    33   35   36 1  
    34   36   37 am 
    35   36   38 2  
    36   10   37 1  
    37   37   39 1  
    38    8   39 1  
    39   16   39 1  
    40   39   40 1  
    41   40   41 2  
    42   40   44 1  
    43   17   41 1  
    44   41   42 1  
    45   42   43 2  
    46   42   48 1  
    47    9   43 1  
    48   43   45 1  
    49   44   45 2  
    50   44   53 1  
    51   12   45 1  
    52   50   51 1  
    53   50   54 2  
    54   51   52 2  
    55   52   53 1  
    56   53   54 1  
    57   11   54 1  
