#

@<TRIPOS>MOLECULE
2zc9
 51 53 0 0 0
SMALL
USER_CHARGES

@<TRIPOS>ATOM
      1 CL1        12.2410   -7.8830   24.5260 Cl        1 LIG         0.0000
      2 C1         18.1650  -14.9640   24.7310 C.3       1 LIG         0.0000
      3 N1         16.3050  -15.7140   23.2320 N.3       1 LIG         0.0000
      4 O1         16.4680  -12.9820   23.1440 O.2       1 LIG         0.0000
      5 C2         17.6270  -15.0160   23.2870 C.3       1 LIG         0.0000
      6 N2         18.1330  -13.1630   21.6570 N.am      1 LIG         0.0000
      7 O2         15.8850  -12.6720   20.0140 O.2       1 LIG         0.0000
      8 C3         17.4490  -13.6090   22.7270 C.2       1 LIG         0.0000
      9 N3         15.7260  -10.6080   20.9320 N.am      1 LIG         0.0000
     10 C4         19.2070  -13.9150   20.9810 C.3       1 LIG         0.0000
     11 C5         19.9730  -12.7300   20.3520 C.3       1 LIG         0.0000
     12 C6         18.8240  -11.7770   19.9170 C.3       1 LIG         0.0000
     13 C7         17.8360  -11.8460   21.1120 C.3       1 LIG         0.0000
     14 C8         16.4020  -11.7500   20.6340 C.2       1 LIG         0.0000
     15 C9         14.3690  -10.4430   20.3670 C.3       1 LIG         0.0000
     16 C10        13.3410  -10.3610   21.5130 C.ar      1 LIG         0.0000
     17 C11        13.2880   -9.2590   22.3860 C.ar      1 LIG         0.0000
     18 C12        12.3350   -9.2340   23.4100 C.ar      1 LIG         0.0000
     19 C13        11.4380  -10.2950   23.5610 C.ar      1 LIG         0.0000
     20 C14        11.5120  -11.3900   22.7010 C.ar      1 LIG         0.0000
     21 C15        12.4440  -11.4030   21.6720 C.ar      1 LIG         0.0000
     22 C16        19.5640  -14.3300   24.8080 C.ar      1 LIG         0.0000
     23 C17        20.6640  -14.8530   24.1100 C.ar      1 LIG         0.0000
     24 C18        21.9170  -14.2340   24.2320 C.ar      1 LIG         0.0000
     25 C19        22.0730  -13.0830   24.9910 C.ar      1 LIG         0.0000
     26 C20        20.9960  -12.5890   25.7570 C.ar      1 LIG         0.0000
     27 C21        19.7440  -13.1800   25.5860 C.ar      1 LIG         0.0000
     28 H01        18.2170  -15.9800   25.1240 H         1 LIG         0.0000
     29 H02        16.3940  -16.5640   22.6940 H         1 LIG         0.0000
     30 H03        16.0030  -15.9390   24.1690 H         1 LIG         0.0000
     31 H04        17.4860  -14.3460   25.3190 H         1 LIG         0.0000
     32 H05        18.3560  -15.5640   22.6910 H         1 LIG         0.0000
     33 H06        16.1370   -9.8960   21.5190 H         1 LIG         0.0000
     34 H07        18.8740  -14.6820   20.2820 H         1 LIG         0.0000
     35 H08        19.8230  -14.4730   21.6860 H         1 LIG         0.0000
     36 H09        20.6270  -13.0230   19.5310 H         1 LIG         0.0000
     37 H10        20.6270  -12.2520   21.0810 H         1 LIG         0.0000
     38 H11        18.3680  -12.0610   18.9680 H         1 LIG         0.0000
     39 H12        19.1920  -10.7610   19.7710 H         1 LIG         0.0000
     40 H13        17.9440  -11.0370   21.8340 H         1 LIG         0.0000
     41 H14        14.1350  -11.2960   19.7300 H         1 LIG         0.0000
     42 H15        14.3290   -9.5280   19.7760 H         1 LIG         0.0000
     43 H16        13.9850   -8.4300   22.2650 H         1 LIG         0.0000
     44 H17        10.6840  -10.2670   24.3480 H         1 LIG         0.0000
     45 H18        10.8380  -12.2360   22.8370 H         1 LIG         0.0000
     46 H19        12.4700  -12.2450   20.9800 H         1 LIG         0.0000
     47 H20        20.5450  -15.7330   23.4780 H         1 LIG         0.0000
     48 H21        22.7800  -14.6630   23.7230 H         1 LIG         0.0000
     49 H22        23.0290  -12.5600   24.9950 H         1 LIG         0.0000
     50 H23        21.1380  -11.7700   26.4620 H         1 LIG         0.0000
     51 H24        18.8780  -12.7320   26.0740 H         1 LIG         0.0000
@<TRIPOS>BOND
     1    2   22 1  
     2    2   28 1  
     3    2   31 1  
     4    3    5 1  
     5    3   29 1  
     6    3   30 1  
     7    2    5 1  
     8    5    8 1  
     9    5   32 1  
    10    6   10 1  
    11    6   13 1  
    12    4    8 2  
    13    6    8 am 
    14    9   15 1  
    15    9   33 1  
    16   10   34 1  
    17   10   35 1  
    18   10   11 1  
    19   11   36 1  
    20   11   37 1  
    21   11   12 1  
    22   12   38 1  
    23   12   39 1  
    24   12   13 1  
    25   13   14 1  
    26   13   40 1  
    27    7   14 2  
    28    9   14 am 
    29   15   16 1  
    30   15   41 1  
    31   15   42 1  
    32   16   17 2  
    33   16   21 1  
    34   17   43 1  
    35    1   18 1  
    36   17   18 1  
    37   18   19 2  
    38   19   44 1  
    39   19   20 1  
    40   20   45 1  
    41   20   21 2  
    42   21   46 1  
    43   22   23 2  
    44   22   27 1  
    45   23   24 1  
    46   23   47 1  
    47   24   25 2  
    48   24   48 1  
    49   25   49 1  
    50   25   26 1  
    51   26   50 1  
    52   26   27 2  
    53   27   51 1  
