#

@<TRIPOS>MOLECULE
T76
 68 71 0 0 0
SMALL
USER_CHARGES

@<TRIPOS>ATOM
      1 H17        15.3160  -19.0640   21.8650 H         1 LIG         0.0000
      2 H02        10.7500  -11.1680   24.9000 H         1 LIG         0.0000
      3 H01        11.0680  -13.2960   23.6390 H         1 LIG         0.0000
      4 H07        17.8970  -11.8100   21.4530 H         1 LIG         0.0000
      5 H06        16.1110  -10.7530   21.3340 H         1 LIG         0.0000
      6 H05        13.8210  -12.2310   20.0780 H         1 LIG         0.0000
      7 H03        13.7520   -9.2780   22.4100 H         1 LIG         0.0000
      8 H16        14.6980  -17.8510   23.0020 H         1 LIG         0.0000
      9 H15        16.2460  -16.7640   24.1080 H         1 LIG         0.0000
     10 H10        20.5300  -12.8800   20.3190 H         1 LIG         0.0000
     11 H13        18.9740  -15.5150   20.4490 H         1 LIG         0.0000
     12 H12        20.0270  -14.8690   21.6770 H         1 LIG         0.0000
     13 H23        17.7900  -14.8980   25.2160 H         1 LIG         0.0000
     14 H11        20.2360  -14.0270   19.0770 H         1 LIG         0.0000
     15 H04        14.0010  -10.4330   20.1720 H         1 LIG         0.0000
     16 H09        17.8720  -13.4980   18.8700 H         1 LIG         0.0000
     17 H32        19.5540  -13.6710   24.0440 H         1 LIG         0.0000
     18 H19        15.1480  -17.1750   20.0710 H         1 LIG         0.0000
     19 H22        12.2370  -14.6320   23.3930 H         1 LIG         0.0000
     20 H21        11.1180  -14.6270   22.0120 H         1 LIG         0.0000
     21 H20        14.4350  -15.1280   21.1750 H         1 LIG         0.0000
     22 H31        19.7290  -13.7230   26.4670 H         1 LIG         0.0000
     23 H26        19.6260  -17.3930   27.2920 H         1 LIG         0.0000
     24 H25        17.8580  -17.2930   25.5350 H         1 LIG         0.0000
     25 H24        19.5030  -17.3570   24.8370 H         1 LIG         0.0000
     26 H27        18.6870  -15.8800   27.3790 H         1 LIG         0.0000
     27 H30        21.3600  -13.7940   25.7460 H         1 LIG         0.0000
     28 H29        21.1050  -15.4170   27.6140 H         1 LIG         0.0000
     29 H28        21.4130  -16.2300   26.0530 H         1 LIG         0.0000
     30 H14        18.7210  -16.1400   22.6080 H         1 LIG         0.0000
     31 H18        13.6280  -17.9500   20.6430 H         1 LIG         0.0000
     32 H08        18.5930  -11.9200   19.0640 H         1 LIG         0.0000
     33 H33        20.5310  -15.1700   23.9100 H         1 LIG         0.0000
     34 C          13.3050  -11.3460   21.9390 C.ar      1 LIG         0.0000
     35 C1         12.6100  -12.4750   22.3290 C.ar      1 LIG         0.0000
     36 C2         11.6610  -12.4160   23.3870 C.ar      1 LIG         0.0000
     37 C3         11.4900  -11.2300   24.1020 C.ar      1 LIG         0.0000
     38 C4         12.2810  -10.1200   23.7820 C.ar      1 LIG         0.0000
     39 C5         13.1730  -10.1610   22.6800 C.ar      1 LIG         0.0000
     40 C6         14.1440  -11.3850   20.6840 C.3       1 LIG         0.0000
     41 N          15.5830  -11.5230   20.9480 N.am      1 LIG         0.0000
     42 C7         16.1920  -12.7050   20.6640 C.2       1 LIG         0.0000
     43 C8         17.6880  -12.7240   20.8980 C.3       1 LIG         0.0000
     44 O          15.6200  -13.7450   20.3220 O.2       1 LIG         0.0000
     45 O1         12.9140  -13.6870   21.7050 O.3       1 LIG         0.0000
     46 C9         18.4400  -12.8770   19.5630 C.3       1 LIG         0.0000
     47 C10        19.7640  -13.5550   19.9390 C.3       1 LIG         0.0000
     48 C11        19.2630  -14.5920   20.9510 C.3       1 LIG         0.0000
     49 N1         18.1110  -13.9590   21.5710 N.am      1 LIG         0.0000
     50 C12        17.4450  -14.3920   22.6690 C.2       1 LIG         0.0000
     51 C13        17.9410  -15.7110   23.2370 C.3       1 LIG         0.0000
     52 N2         16.8250  -16.6570   23.2880 N.am      1 LIG         0.0000
     53 C14        16.6220  -17.3810   22.1570 C.2       1 LIG         0.0000
     54 O2         17.4440  -17.4820   21.2250 O.2       1 LIG         0.0000
     55 C15        15.2330  -17.9950   22.0630 C.3       1 LIG         0.0000
     56 C16        14.4690  -17.3110   20.9130 C.3       1 LIG         0.0000
     57 N3         13.9290  -15.9920   21.3100 N.am      1 LIG         0.0000
     58 C17        12.7000  -16.0430   21.8690 C.2       1 LIG         0.0000
     59 O3         12.0520  -17.0770   22.0300 O.2       1 LIG         0.0000
     60 C18        12.1630  -14.7150   22.3090 C.3       1 LIG         0.0000
     61 O4         16.4310  -13.8520   23.1320 O.2       1 LIG         0.0000
     62 C19        18.5290  -15.4530   24.6390 C.3       1 LIG         0.0000
     63 C20        18.7960  -16.7530   25.4060 C.3       1 LIG         0.0000
     64 C21        19.4010  -16.4530   26.7880 C.3       1 LIG         0.0000
     65 C22        20.6980  -15.6420   26.6280 C.3       1 LIG         0.0000
     66 C23        20.4210  -14.3300   25.8830 C.3       1 LIG         0.0000
     67 C24        19.8080  -14.6210   24.5140 C.3       1 LIG         0.0000
     68 CL         12.1860   -8.7050   24.7850 Cl        1 LIG         0.0000
@<TRIPOS>BOND
     1   34   35 2  
     2   34   39 1  
     3   34   40 1  
     4   35   36 1  
     5   35   45 1  
     6    3   36 1  
     7   36   37 2  
     8    2   37 1  
     9   37   38 1  
    10   38   39 2  
    11   38   68 1  
    12    7   39 1  
    13    6   40 1  
    14   15   40 1  
    15   40   41 1  
    16    5   41 1  
    17   41   42 am 
    18   42   43 1  
    19   42   44 2  
    20    4   43 1  
    21   43   46 1  
    22   43   49 1  
    23   45   60 1  
    24   16   46 1  
    25   32   46 1  
    26   46   47 1  
    27   10   47 1  
    28   14   47 1  
    29   47   48 1  
    30   11   48 1  
    31   12   48 1  
    32   48   49 1  
    33   49   50 am 
    34   50   51 1  
    35   50   61 2  
    36   30   51 1  
    37   51   52 1  
    38   51   62 1  
    39    9   52 1  
    40   52   53 am 
    41   53   54 2  
    42   53   55 1  
    43    1   55 1  
    44    8   55 1  
    45   55   56 1  
    46   18   56 1  
    47   31   56 1  
    48   56   57 1  
    49   21   57 1  
    50   57   58 am 
    51   58   59 2  
    52   58   60 1  
    53   19   60 1  
    54   20   60 1  
    55   13   62 1  
    56   62   63 1  
    57   62   67 1  
    58   24   63 1  
    59   25   63 1  
    60   63   64 1  
    61   23   64 1  
    62   26   64 1  
    63   64   65 1  
    64   28   65 1  
    65   29   65 1  
    66   65   66 1  
    67   22   66 1  
    68   27   66 1  
    69   66   67 1  
    70   17   67 1  
    71   33   67 1  
