#

@<TRIPOS>MOLECULE
177
 68 70 0 0 0
SMALL
USER_CHARGES

@<TRIPOS>ATOM
      1 H04        17.6710  -14.8610   25.0580 H         1 LIG         0.0000
      2 H06        20.3440  -15.4580   23.7090 H         1 LIG         0.0000
      3 H05        19.5000  -13.8700   23.7710 H         1 LIG         0.0000
      4 H11        18.5620  -15.8340   27.2350 H         1 LIG         0.0000
      5 H10        21.2630  -16.3930   25.9510 H         1 LIG         0.0000
      6 H09        20.9340  -15.4180   27.4250 H         1 LIG         0.0000
      7 H08        21.3600  -14.0430   25.3860 H         1 LIG         0.0000
      8 H07        19.7650  -13.7640   26.1460 H         1 LIG         0.0000
      9 H19        20.0710  -13.7610   19.1890 H         1 LIG         0.0000
     10 H14        17.6590  -17.2910   25.4910 H         1 LIG         0.0000
     11 H17        17.7170  -13.4390   18.8280 H         1 LIG         0.0000
     12 H16        18.3240  -11.8410   19.0860 H         1 LIG         0.0000
     13 H27        13.6130   -9.4300   22.4900 H         1 LIG         0.0000
     14 H15        17.5720  -11.8570   21.4630 H         1 LIG         0.0000
     15 H13        19.2940  -17.4150   24.7630 H         1 LIG         0.0000
     16 H12        19.4260  -17.3930   27.2000 H         1 LIG         0.0000
     17 H20        18.7970  -15.4720   20.3360 H         1 LIG         0.0000
     18 H23        13.4680  -12.2360   19.9900 H         1 LIG         0.0000
     19 H26        10.5900  -11.2920   24.9310 H         1 LIG         0.0000
     20 H25        10.6240  -13.2640   23.4670 H         1 LIG         0.0000
     21 H24        13.6780  -10.4450   20.1040 H         1 LIG         0.0000
     22 H35        10.5520  -17.5190   20.8800 H         1 LIG         0.0000
     23 H30        12.5900  -15.2150   19.8540 H         1 LIG         0.0000
     24 H29        14.0050  -14.5510   22.4190 H         1 LIG         0.0000
     25 H28        12.4260  -14.6770   23.2570 H         1 LIG         0.0000
     26 H31        12.9920  -18.0620   19.8590 H         1 LIG         0.0000
     27 H34        10.8740  -18.9330   19.8470 H         1 LIG         0.0000
     28 H33        10.1560  -17.4640   19.1460 H         1 LIG         0.0000
     29 H32        12.3310  -17.0750   18.5200 H         1 LIG         0.0000
     30 H18        20.1250  -12.7020   20.5540 H         1 LIG         0.0000
     31 H22        15.7700  -10.8420   21.2360 H         1 LIG         0.0000
     32 H21        19.7460  -14.8380   21.6350 H         1 LIG         0.0000
     33 H01        16.8050  -17.6860   22.9750 H         1 LIG         0.0000
     34 H02        16.2900  -16.8390   24.2930 H         1 LIG         0.0000
     35 H03        18.4320  -16.2830   22.5100 H         1 LIG         0.0000
     36 N          16.5390  -16.7740   23.3160 N.3       1 LIG         0.0000
     37 C          17.6790  -15.8310   23.1550 C.3       1 LIG         0.0000
     38 C1         18.3540  -15.5110   24.5110 C.3       1 LIG         0.0000
     39 C2         19.6950  -14.8060   24.2940 C.3       1 LIG         0.0000
     40 C3         20.3820  -14.4750   25.5970 C.3       1 LIG         0.0000
     41 C4         20.5600  -15.7250   26.4480 C.3       1 LIG         0.0000
     42 C5         19.2390  -16.4650   26.6590 C.3       1 LIG         0.0000
     43 C6         18.6080  -16.7810   25.3240 C.3       1 LIG         0.0000
     44 C7         17.1190  -14.5420   22.5670 C.2       1 LIG         0.0000
     45 O          16.0610  -14.0490   23.0210 O.2       1 LIG         0.0000
     46 N1         17.7960  -13.9860   21.5400 N.am      1 LIG         0.0000
     47 C8         17.3940  -12.7490   20.8620 C.3       1 LIG         0.0000
     48 C9         15.8980  -12.7300   20.5530 C.2       1 LIG         0.0000
     49 O1         15.3430  -13.7480   20.1180 O.2       1 LIG         0.0000
     50 C10        18.2040  -12.8090   19.5720 C.3       1 LIG         0.0000
     51 C11        19.4760  -13.4040   20.0290 C.3       1 LIG         0.0000
     52 C12        18.9950  -14.5580   20.8960 C.3       1 LIG         0.0000
     53 N2         15.2450  -11.6060   20.8350 N.am      1 LIG         0.0000
     54 C13        13.8170  -11.4050   20.6020 C.3       1 LIG         0.0000
     55 C14        13.0030  -11.4100   21.8720 C.ar      1 LIG         0.0000
     56 C15        12.1660  -12.4880   22.1520 C.ar      1 LIG         0.0000
     57 C16        11.2890  -12.4260   23.2580 C.ar      1 LIG         0.0000
     58 C17        11.2650  -11.3160   24.0760 C.ar      1 LIG         0.0000
     59 C18        12.1010  -10.2150   23.8200 C.ar      1 LIG         0.0000
     60 C19        12.9630  -10.2770   22.7080 C.ar      1 LIG         0.0000
     61 CL         12.0610   -8.8120   24.7990 Cl        1 LIG         0.0000
     62 O2         12.4020  -13.6620   21.4670 O.3       1 LIG         0.0000
     63 C20        12.9340  -14.7070   22.2930 C.3       1 LIG         0.0000
     64 C21        12.7020  -16.0660   21.6720 C.2       1 LIG         0.0000
     65 O3         12.6950  -17.0820   22.3680 O.2       1 LIG         0.0000
     66 N3         12.5300  -16.0900   20.3550 N.am      1 LIG         0.0000
     67 C22        12.2590  -17.3040   19.5830 C.3       1 LIG         0.0000
     68 C23        10.8600  -17.8440   19.8860 C.3       1 LIG         0.0000
@<TRIPOS>BOND
     1   33   36 1  
     2   34   36 1  
     3   36   37 1  
     4   35   37 1  
     5   37   38 1  
     6   37   44 1  
     7    1   38 1  
     8   38   39 1  
     9   38   43 1  
    10    2   39 1  
    11    3   39 1  
    12   39   40 1  
    13    7   40 1  
    14    8   40 1  
    15   40   41 1  
    16    5   41 1  
    17    6   41 1  
    18   41   42 1  
    19    4   42 1  
    20   16   42 1  
    21   42   43 1  
    22   10   43 1  
    23   15   43 1  
    24   44   45 2  
    25   44   46 am 
    26   46   47 1  
    27   46   52 1  
    28   14   47 1  
    29   47   48 1  
    30   47   50 1  
    31   48   49 2  
    32   48   53 am 
    33   11   50 1  
    34   12   50 1  
    35   50   51 1  
    36    9   51 1  
    37   30   51 1  
    38   51   52 1  
    39   17   52 1  
    40   32   52 1  
    41   31   53 1  
    42   53   54 1  
    43   18   54 1  
    44   21   54 1  
    45   54   55 1  
    46   55   56 2  
    47   55   60 1  
    48   56   57 1  
    49   56   62 1  
    50   20   57 1  
    51   57   58 2  
    52   19   58 1  
    53   58   59 1  
    54   59   60 2  
    55   59   61 1  
    56   13   60 1  
    57   62   63 1  
    58   24   63 1  
    59   25   63 1  
    60   63   64 1  
    61   64   65 2  
    62   64   66 am 
    63   23   66 1  
    64   66   67 1  
    65   26   67 1  
    66   29   67 1  
    67   67   68 1  
    68   22   68 1  
    69   27   68 1  
    70   28   68 1  
