#

@<TRIPOS>MOLECULE
BUQ_chA_altB
 14 13 0 0 0
SMALL
USER_CHARGES

@<TRIPOS>ATOM
      1 C1         59.5950   -4.2870    1.3220 C.3       1 LIG         0.0000
      2 C2         60.3440   -5.1450    0.3080 C.2       1 LIG         0.0000
      3 O2         60.4150   -6.3700    0.4470 O.2       1 LIG         0.0000
      4 C3         61.0150   -4.4630   -0.8690 C.3       1 LIG         0.0000
      5 C4         60.1230   -3.4170   -1.5290 C.3       1 LIG         0.0000
      6 O5         59.0960   -4.0170   -2.3040 O.3       1 LIG         0.0000
      7 H01        58.6030   -4.7070    1.4900 H         1 LIG         0.0000
      8 H02        60.1460   -4.2700    2.2620 H         1 LIG         0.0000
      9 H03        59.4990   -3.2710    0.9390 H         1 LIG         0.0000
     10 H04        61.2310   -5.2290   -1.6140 H         1 LIG         0.0000
     11 H05        61.9250   -3.9760   -0.5180 H         1 LIG         0.0000
     12 H06        60.7410   -2.8140   -2.1930 H         1 LIG         0.0000
     13 H07        59.6670   -2.8000   -0.7540 H         1 LIG         0.0000
     14 H08        58.8170   -4.8360   -1.8870 H         1 LIG         0.0000
@<TRIPOS>BOND
     1    1    2 1  
     2    1    7 1  
     3    1    8 1  
     4    1    9 1  
     5    2    3 2  
     6    2    4 1  
     7    4    5 1  
     8    4   10 1  
     9    4   11 1  
    10    5    6 1  
    11    5   12 1  
    12    5   13 1  
    13    6   14 1  
